24
FFE output
O   12.282  -11.118  -22.807
H   11.461  -10.632  -22.730
H   12.919  -10.769  -22.184
O   14.563  -12.558  -22.762
H   15.386  -12.099  -22.593
H   14.155  -12.201  -23.551
O   15.024  -15.023  -23.093
H   14.850  -14.090  -22.968
H   15.963  -15.187  -23.007
O   13.227  -10.872  -25.266
H   12.885  -10.961  -24.376
H   12.669  -10.275  -25.765
O   13.542  -13.032  -28.091
H   13.897  -13.280  -27.238
H   12.761  -12.493  -27.967
O   15.583  -11.484  -29.602
H   14.811  -12.030  -29.453
H   15.685  -11.325  -30.540
O   15.849  -11.070  -32.044
H   16.065  -10.149  -32.190
H   15.031  -11.281  -32.494
O   15.009  -15.032  -32.677
H   14.813  -15.957  -32.825
H   14.268  -14.615  -32.237
