6
s                      x[A]                      y[A]                      z[A]                      q[e]
N        0.0000000000000000        0.9452588792696963       -0.3664336743612016        0.2314283515440728
N        0.0000000000000000        0.7655741708693334       -0.6945908013924098        0.1229317230114044
O       -0.1852120237345000        0.0049734700790939        0.0590851320617898       -0.3543600596543159
O        0.1852120237345000        0.0049734700790939        0.0590851320617898       -0.3543600596543159
N        0.0000000000000000       -0.9452588792696963       -0.3664336743612016        0.2314283515440728
N        0.0000000000000000       -0.7655741708693334       -0.6945908013924098        0.1229317230114044

        RMSE         9.910899613E-01 kcal/mol
         MAE         7.672402844E-01 kcal/mol
     max. AE         5.463554441E+00 kcal/mol

Coordinates in bohr
s                   x[bohr]                   y[bohr]                   z[bohr]                      q[e]
+        0.0000000000000000        1.7862803994769323       -0.6924592876878690        0.2314283515440728
+        0.0000000000000000        1.4467255116674949       -1.3125863838939265        0.1229317230114044
-       -0.3500000000000000        0.0093984963426465        0.1116547176832901       -0.3543600596543159
-        0.3500000000000000        0.0093984963426465        0.1116547176832901       -0.3543600596543159
+        0.0000000000000000       -1.7862803994769323       -0.6924592876878690        0.2314283515440728
+        0.0000000000000000       -1.4467255116674949       -1.3125863838939265        0.1229317230114044
