3
s                      x[A]                      y[A]                      z[A]                      q[e]
N        0.0000000000000000        0.7877210247275166       -0.4375766355030230        0.3379860774420776
O        0.0000000000000000        0.0000000000000000        0.1093941588757558       -0.6759721250818329
N        0.0000000000000000       -0.7877210247275166       -0.4375766355030230        0.3379860774420776

        RMSE         2.337391698E+00 kcal/mol
         MAE         1.756517617E+00 kcal/mol
     max. AE         1.039749922E+01 kcal/mol

Coordinates in bohr
s                   x[bohr]                   y[bohr]                   z[bohr]                      q[e]
+        0.0000000000000000        1.4885770000000000       -0.8269000000000000        0.3379860774420776
-        0.0000000000000000        0.0000000000000000        0.2067250000000000       -0.6759721250818329
+        0.0000000000000000       -1.4885770000000000       -0.8269000000000000        0.3379860774420776
