6
s                      x[A]                      y[A]                      z[A]                      q[e]
N        0.2030814923149369       -0.4693089912001603        0.0737617103457657        0.5225510325000000
N        1.2663805349289876       -0.4749361231066754       -0.2652077968403982        0.0948963128000000
O        0.0404383594912770       -0.2111455646422325       -0.4461856716204600       -0.6174473453000000
O        0.0404383594912770       -0.2111455646422325        0.4461856716204600       -0.6174473453000000
N       -0.2056024825826034       -0.4251340406313721        0.0737617103457657        0.5225510325000000
N       -1.2659504923948977       -0.3457702155940324       -0.2652077968403982        0.0948963128000000

        RMSE         4.456559115E+00 kcal/mol
         MAE         3.483694801E+00 kcal/mol
     max. AE         1.795591607E+01 kcal/mol

Coordinates in bohr
s                   x[bohr]                   y[bohr]                   z[bohr]                      q[e]
+        0.3837684016244994       -0.8868654615832010        0.1393894310988464        0.5225510325000000
+        2.3931123816265676       -0.8974991997583398       -0.5011701023644125        0.0948963128000000
-        0.0764174244013217       -0.3990072897789714       -0.8431687204661307       -0.6174473453000000
-        0.0764174244013217       -0.3990072897789714        0.8431687204661307       -0.6174473453000000
+       -0.3885323827953338       -0.8033869034025536        0.1393894310988464        0.5225510325000000
+       -2.3922997190148396       -0.6534110098132289       -0.5011701023644125        0.0948963128000000
