3
s                      x[A]                      y[A]                      z[A]                      q[e]
N        0.0000000000000000        0.6883674742470135       -0.4749270213865329        0.3379860774420776
O        0.0000000000000000        0.0000000000000000        0.1187320199352386       -0.6759721250818329
N        0.0000000000000000       -0.6883674742470135       -0.4749270213865329        0.3379860774420776

        RMSE         2.041974202E+00 kcal/mol
         MAE         1.535064414E+00 kcal/mol
     max. AE         9.100558855E+00 kcal/mol

Coordinates in bohr
s                   x[bohr]                   y[bohr]                   z[bohr]                      q[e]
+        0.0000000000000000        1.3008260000000000       -0.8974820000000000        0.3379860774420776
-        0.0000000000000000        0.0000000000000000        0.2243710000000000       -0.6759721250818329
+        0.0000000000000000       -1.3008260000000000       -0.8974820000000000        0.3379860774420776
