6
s                      x[A]                      y[A]                      z[A]                      q[e]
N        0.0000000000000000        0.4947966455091206       -0.1210731684814993        0.5225510325000000
N        0.0000000000000000        0.9760996259015954       -0.7533441536083127        0.0948963129000000
O       -0.3455139784000000        0.0007313691139854        0.1345601947943013       -0.6174473453000000
O        0.3455139784000000        0.0007313691139854        0.1345601947943013       -0.6174473453000000
N       -0.0000000000000000       -0.4947966455091206       -0.1210731684814993        0.5225510325000000
N        0.0000000000000000       -0.9760996259015954       -0.7533441536083127        0.0948963129000000

        RMSE         4.675736345E-01 kcal/mol
         MAE         3.326803293E-01 kcal/mol
     max. AE         2.614074771E+00 kcal/mol

Coordinates in bohr
s                   x[bohr]                   y[bohr]                   z[bohr]                      q[e]
+        0.0000000000000000        0.9350301478074808       -0.2287951295714466        0.5225510325000000
+        0.0000000000000000        1.8445609641158573       -1.4236141285345438        0.0948963129000000
-       -0.6529267916933517        0.0013820873220511        0.2542819155494856       -0.6174473453000000
-        0.6529267916933517        0.0013820873220511        0.2542819155494856       -0.6174473453000000
+       -0.0000000000000000       -0.9350301478074808       -0.2287951295714466        0.5225510325000000
+        0.0000000000000000       -1.8445609641158573       -1.4236141285345438        0.0948963129000000
