3
s                      x[A]                      y[A]                      z[A]                      q[e]
N        0.7739163788327683       -0.3643755519510419        0.0000000000000000        0.3613484133133580
O        0.0000000000000000        0.1124199941663668        0.0000000000000000       -0.7226967968243936
N       -0.7739163788327683       -0.5349854597343140        0.0000000000000000        0.3613484133133580

        RMSE         2.228662535E+00 kcal/mol
         MAE         1.678051338E+00 kcal/mol
     max. AE         1.023568002E+01 kcal/mol

Coordinates in bohr
s                   x[bohr]                   y[bohr]                   z[bohr]                      q[e]
+        1.4624900000000001       -0.6885700000000000        0.0000000000000000        0.3613484133133580
-        0.0000000000000000        0.2124430000000000        0.0000000000000000       -0.7226967968243936
+       -1.4624900000000001       -1.0109760000000001        0.0000000000000000        0.3613484133133580
