6
s                      x[A]                      y[A]                      z[A]                      q[e]
N        0.0814501393706186        0.3946598363014129       -0.4331541729998856        0.5225510325000000
N       -0.1881972903359277        1.2880876796031480       -0.4273732216438066        0.0948963128000000
O       -0.3849835672658313        0.1130565473472857       -0.1813494533136588       -0.6174473453000000
O        0.3849835672658313        0.1130565473472857       -0.1813494533136588       -0.6174473453000000
N        0.0814501393706186       -0.3946598363014129       -0.4331541729998856        0.5225510325000000
N       -0.1881972903359277       -1.2880876796031480       -0.4273732216438066        0.0948963128000000

        RMSE         5.596605711E+00 kcal/mol
         MAE         4.399747258E+00 kcal/mol
     max. AE         2.122007876E+01 kcal/mol

Coordinates in bohr
s                   x[bohr]                   y[bohr]                   z[bohr]                      q[e]
+        0.1539184562908392        0.7457990033276898       -0.8185427570689636        0.5225510325000000
+       -0.3556413362881747        2.4341329400264211       -0.8076183422613803        0.0948963128000000
-       -0.7275135049341925        0.2136459111762258       -0.3427007997643158       -0.6174473453000000
-        0.7275135049341925        0.2136459111762258       -0.3427007997643158       -0.6174473453000000
+        0.1539184562908392       -0.7457990033276898       -0.8185427570689636        0.5225510325000000
+       -0.3556413362881747       -2.4341329400264211       -0.8076183422613803        0.0948963128000000
