6
s                      x[A]                      y[A]                      z[A]                      q[e]
N        1.0046464245957381       -0.4273997946653723        0.0000000000000000        0.1979110689179275
N        0.6804857448318710       -0.9222357966262670        0.0000000000000000        0.1054997195048966
O        0.0042014522717299        0.1295277537421046       -0.2910474658684998       -0.3034107735216629
O        0.0042014522717299        0.1295277537421046        0.2910474658684998       -0.3034107735216629
N       -0.9976186479741918       -0.3340801240599459        0.0000000000000000        0.1979110689179275
N       -0.7036666431348627       -0.8474367583723447        0.0000000000000000        0.1054997195048966

        RMSE         7.413006433E-01 kcal/mol
         MAE         4.743358694E-01 kcal/mol
     max. AE         4.403635290E+00 kcal/mol

Coordinates in bohr
s                   x[bohr]                   y[bohr]                   z[bohr]                      q[e]
+        1.8985065954063640       -0.8076685579944654        0.0000000000000000        0.1979110689179275
+        1.2859316900104159       -1.7427730787170690        0.0000000000000000        0.1054997195048966
-        0.0079395941227521        0.2447719802183229       -0.5499999999999997       -0.3034107735216629
-        0.0079395941227521        0.2447719802183229        0.5499999999999997       -0.3034107735216629
+       -1.8852260223207464       -0.6313199384322721        0.0000000000000000        0.1979110689179275
+       -1.3297372391451603       -1.6014233819695125        0.0000000000000000        0.1054997195048966
