6
s                      x[A]                      y[A]                      z[A]                      q[e]
N        0.5789980118578606       -0.0493191274091290        0.0000000000000000        0.5225510325000000
N        1.1861227671041483       -0.5619775801191621        0.0000000000000000        0.0948963129000000
O       -0.0032491985771541        0.1157988093198927       -0.3455139784000000       -0.6174473453000000
O       -0.0032491985771541        0.1157988093198927        0.3455139784000000       -0.6174473453000000
N       -0.6059308993367449       -0.1267927426383307        0.0000000000000000        0.5225510325000000
N       -1.1652240384828292       -0.6912485354795673        0.0000000000000000        0.0948963129000000

        RMSE         1.669685208E+00 kcal/mol
         MAE         1.362117640E+00 kcal/mol
     max. AE         5.956021647E+00 kcal/mol

Coordinates in bohr
s                   x[bohr]                   y[bohr]                   z[bohr]                      q[e]
+        1.0941476695959405       -0.0931996435498142        0.0000000000000000        0.5225510325000000
+        2.2414471809970400       -1.0619837150727505        0.0000000000000000        0.0948963129000000
-       -0.0061400954380485        0.2188280352687107       -0.6529267916933517       -0.6174473453000000
-       -0.0061400954380485        0.2188280352687107        0.6529267916933517       -0.6174473453000000
+       -1.1450434506988043       -0.2396035582821042        0.0000000000000000        0.5225510325000000
+       -2.2019543075324801       -1.3062704166802008        0.0000000000000000        0.0948963129000000
