6
s                      x[A]                      y[A]                      z[A]                      q[e]
N        0.5912667578282295       -0.1622725649827039        0.0000000000000000        0.5225510325000000
N        1.1154671086239218       -0.7594602656209398        0.0000000000000000        0.0948963129000000
O       -0.0005423336620079        0.1167689733541313       -0.3455139784000000       -0.6174473453000000
O       -0.0005423336620079        0.1167689733541313        0.3455139784000000       -0.6174473453000000
N       -0.5375340133995751       -0.0120853158834406       -0.0000000000000000        0.5225510325000000
N       -1.1575301607267339       -0.5091003406738289        0.0000000000000000        0.0948963129000000

        RMSE         2.007713106E+00 kcal/mol
         MAE         1.623724200E+00 kcal/mol
     max. AE         6.735561157E+00 kcal/mol

Coordinates in bohr
s                   x[bohr]                   y[bohr]                   z[bohr]                      q[e]
+        1.1173322393827521       -0.3066507054928686        0.0000000000000000        0.5225510325000000
+        2.1079273372555303       -1.4351719051910317        0.0000000000000000        0.0948963129000000
-       -0.0010248620898115        0.2206613795901908       -0.6529267916933517       -0.6174473453000000
-       -0.0010248620898115        0.2206613795901908        0.6529267916933517       -0.6174473453000000
+       -1.0157920684433752       -0.0228379371593482       -0.0000000000000000        0.5225510325000000
+       -2.1874149857307077       -0.9620602142508151        0.0000000000000000        0.0948963129000000
