3
s                      x[A]                      y[A]                      z[A]                      q[e]
N        0.0000000000000000        0.8577735038760111       -0.4250594777618348        0.3379860774420776
O        0.0000000000000000        0.0000000000000000        0.1062646048518534       -0.6759721250818329
N        0.0000000000000000       -0.8577735038760111       -0.4250594777618348        0.3379860774420776

        RMSE         2.551631063E+00 kcal/mol
         MAE         1.930110009E+00 kcal/mol
     max. AE         1.028631779E+01 kcal/mol

Coordinates in bohr
s                   x[bohr]                   y[bohr]                   z[bohr]                      q[e]
+        0.0000000000000000        1.6209570000000000       -0.8032460000000000        0.3379860774420776
-        0.0000000000000000        0.0000000000000000        0.2008110000000000       -0.6759721250818329
+        0.0000000000000000       -1.6209570000000000       -0.8032460000000000        0.3379860774420776
