6
s                      x[A]                      y[A]                      z[A]                      q[e]
N        0.0748500608149213        0.2992123968793307       -0.4689725407782724        0.5225510325000000
N       -0.2398424095373854        1.3148779647319917       -0.4408262180805275        0.0948963128000000
O       -0.4300281675700124        0.0667116992900368       -0.1906817581825572       -0.6174473453000000
O        0.4300281675700124        0.0667116992900368       -0.1906817581825572       -0.6174473453000000
N        0.0748500608149213       -0.2992123968793307       -0.4689725407782724        0.5225510325000000
N       -0.2398424095373854       -1.3148779647319917       -0.4408262180805275        0.0948963128000000

        RMSE         4.482463896E+00 kcal/mol
         MAE         3.410508655E+00 kcal/mol
     max. AE         2.544820451E+01 kcal/mol

Coordinates in bohr
s                   x[bohr]                   y[bohr]                   z[bohr]                      q[e]
+        0.1414461154140640        0.5654294834437275       -0.8862296624310381        0.5225510325000000
+       -0.4532364672955530        2.4847592417428617       -0.8330408210935427        0.0948963128000000
-       -0.8126354629398092        0.1260668410220689       -0.3603363000858104       -0.6174473453000000
-        0.8126354629398092        0.1260668410220689       -0.3603363000858104       -0.6174473453000000
+        0.1414461154140640       -0.5654294834437275       -0.8862296624310381        0.5225510325000000
+       -0.4532364672955530       -2.4847592417428617       -0.8330408210935427        0.0948963128000000
