6
s                      x[A]                      y[A]                      z[A]                      q[e]
N        0.9354580040210028       -0.3747122298692416        0.0000000000000000        0.2314283515440728
N        0.7491762921625771       -0.6991699594449055        0.0000000000000000        0.1229317230114044
O        0.0039666745061332        0.0697275321644403       -0.1852120237345000       -0.3543600596543159
O        0.0039666745061332        0.0697275321644403        0.1852120237345000       -0.3543600596543159
N       -0.9391514842990937       -0.4669953937967589        0.0000000000000000        0.2314283515440728
N       -0.7324103468087947       -0.7788155286878805        0.0000000000000000        0.1229317230114044

        RMSE         8.317480328E-01 kcal/mol
         MAE         5.666546565E-01 kcal/mol
     max. AE         5.767190046E+00 kcal/mol

Coordinates in bohr
s                   x[bohr]                   y[bohr]                   z[bohr]                      q[e]
+        1.7677594294671231       -0.7081034903124650        0.0000000000000000        0.2314283515440728
+        1.4157380118732488       -1.3212397384983281        0.0000000000000000        0.1229317230114044
-        0.0074959284454274        0.1317659391948438       -0.3500000000000000       -0.3543600596543159
-        0.0074959284454274        0.1317659391948438        0.3500000000000000       -0.3543600596543159
+       -1.7747390956424947       -0.8824933961262018        0.0000000000000000        0.2314283515440728
+       -1.3840549669202078       -1.4717480514737384        0.0000000000000000        0.1229317230114044
