6
s                      x[A]                      y[A]                      z[A]                      q[e]
N        0.0000000000000000        0.4569438922332405       -0.1693111035092441        0.5225510325000000
N        0.0000000000000000        0.8455682356323291       -0.8624130276773548        0.0948963129000000
O       -0.3455139784000000        0.0032640311974004        0.1525945754972927       -0.6174473453000000
O        0.3455139784000000        0.0032640311974004        0.1525945754972927       -0.6174473453000000
N       -0.0000000000000000       -0.4569438922332405       -0.1693111035092441        0.5225510325000000
N        0.0000000000000000       -0.8455682356323291       -0.8624130276773548        0.0948963129000000

        RMSE         1.694134414E+00 kcal/mol
         MAE         1.315824524E+00 kcal/mol
     max. AE         6.874639266E+00 kcal/mol

Coordinates in bohr
s                   x[bohr]                   y[bohr]                   z[bohr]                      q[e]
+        0.0000000000000000        0.8634988110215409       -0.3199516156315132        0.5225510325000000
+        0.0000000000000000        1.5978923857316931       -1.6297244293370825        0.0948963129000000
-       -0.6529267916933517        0.0061681250280370        0.2883619559203809       -0.6174473453000000
-        0.6529267916933517        0.0061681250280370        0.2883619559203809       -0.6174473453000000
+       -0.0000000000000000       -0.8634988110215409       -0.3199516156315132        0.5225510325000000
+        0.0000000000000000       -1.5978923857316931       -1.6297244293370825        0.0948963129000000
