6
s                      x[A]                      y[A]                      z[A]                      q[e]
N        0.0000000000000000        0.9818559666846647       -0.4540529531661782        0.1979110689179275
N       -0.0000000000000000        0.6382343016926021       -0.9355786186189112        0.1054997195048966
O       -0.2910474658684998        0.0043983348949605        0.1422984285531343       -0.3034107735216629
O        0.2910474658684998        0.0043983348949605        0.1422984285531343       -0.3034107735216629
N       -0.0000000000000000       -0.9818559666846647       -0.4540529531661782        0.1979110689179275
N        0.0000000000000000       -0.6382343016926021       -0.9355786186189112        0.1054997195048966

        RMSE         1.195323039E+00 kcal/mol
         MAE         8.494504527E-01 kcal/mol
     max. AE         5.968384011E+00 kcal/mol

Coordinates in bohr
s                   x[bohr]                   y[bohr]                   z[bohr]                      q[e]
+        0.0000000000000000        1.8554388716806618       -0.8580357279394066        0.1979110689179275
+       -0.0000000000000000        1.2060880340718436       -1.7679873580239023        0.1054997195048966
-       -0.5499999999999997        0.0083116483595196        0.2689050580484522       -0.3034107735216629
-        0.5499999999999997        0.0083116483595196        0.2689050580484522       -0.3034107735216629
+       -0.0000000000000000       -1.8554388716806618       -0.8580357279394066        0.1979110689179275
+        0.0000000000000000       -1.2060880340718436       -1.7679873580239023        0.1054997195048966
