6
s                      x[A]                      y[A]                      z[A]                      q[e]
N        0.0557759117703407       -0.4719008082456145        0.0759878824121164        0.5225510325000000
N        1.3981852474287466       -0.3328370537614356       -0.4454764226680535        0.0948963128000000
O        0.0044066863938510       -0.3036831099968189       -0.5368308414094157       -0.6174473453000000
O        0.0044066863938510       -0.3036831099968189        0.5368308414094157       -0.6174473453000000
N       -0.0538232892349313       -0.5428680944140342        0.0759878824121164        0.5225510325000000
N       -1.4030934108054984       -0.5723925133079779       -0.4454764226680535        0.0948963128000000

        RMSE         6.237914082E+00 kcal/mol
         MAE         5.193697990E+00 kcal/mol
     max. AE         2.691701208E+01 kcal/mol

Coordinates in bohr
s                   x[bohr]                   y[bohr]                   z[bohr]                      q[e]
+        0.1054011976436436       -0.8917632859664026        0.1435962866123938        0.5225510325000000
+        2.6421871902958203       -0.6289708760133965       -0.8418284341913146        0.0948963128000000
-        0.0083274304051598       -0.5738779068212719       -1.0144632659628809       -0.6174473453000000
-        0.0083274304051598       -0.5738779068212719        1.0144632659628809       -0.6174473453000000
+       -0.1017112758253227       -1.0258720206917071        0.1435962866123938        0.5225510325000000
+       -2.6514622748568835       -1.0816650864145534       -0.8418284341913146        0.0948963128000000
