6
s                      x[A]                      y[A]                      z[A]                      q[e]
N        0.0000000000000000        0.4621788523601744       -0.1634431928470016        0.5225510325000000
N        0.0000000000000000        0.8628400319200410       -0.8496572824441232        0.0948963129000000
O       -0.3455139784000000        0.0029499253452237        0.1504961097546046       -0.6174473453000000
O        0.3455139784000000        0.0029499253452237        0.1504961097546046       -0.6174473453000000
N        0.0000000000000000       -0.4621788523601744       -0.1634431928470016        0.5225510325000000
N        0.0000000000000000       -0.8628400319200410       -0.8496572824441232        0.0948963129000000

        RMSE         1.927726836E+00 kcal/mol
         MAE         1.525165157E+00 kcal/mol
     max. AE         8.965377781E+00 kcal/mol

Coordinates in bohr
s                   x[bohr]                   y[bohr]                   z[bohr]                      q[e]
+        0.0000000000000000        0.8733914519391379       -0.3088628715512209        0.5225510325000000
+        0.0000000000000000        1.6305313504101679       -1.6056195643201605        0.0948963129000000
-       -0.6529267916933517        0.0055745509930195        0.2843964303830450       -0.6174473453000000
-        0.6529267916933517        0.0055745509930195        0.2843964303830450       -0.6174473453000000
+        0.0000000000000000       -0.8733914519391379       -0.3088628715512209        0.5225510325000000
+        0.0000000000000000       -1.6305313504101679       -1.6056195643201605        0.0948963129000000
