6
s                      x[A]                      y[A]                      z[A]                      q[e]
N        0.0000000000000000        0.9271023548441376       -0.4751761199498643        0.2314283515440728
N        0.0000000000000000        0.7141002305848363       -0.7827534102613000        0.1229317230114044
O       -0.1852120237345000       -0.0002544738355095        0.0802541509389873       -0.3543600596543159
O        0.1852120237345000       -0.0002544738355095        0.0802541509389873       -0.3543600596543159
N        0.0000000000000000       -0.9271023548441376       -0.4751761199498643        0.2314283515440728
N        0.0000000000000000       -0.7141002305848363       -0.7827534102613000        0.1229317230114044

        RMSE         1.018736002E+00 kcal/mol
         MAE         7.209261983E-01 kcal/mol
     max. AE         6.001761263E+00 kcal/mol

Coordinates in bohr
s                   x[bohr]                   y[bohr]                   z[bohr]                      q[e]
+        0.0000000000000000        1.7519695409224407       -0.8979527280629411        0.2314283515440728
+        0.0000000000000000        1.3494538619316243       -1.4791895691619881        0.1229317230114044
-       -0.3500000000000000       -0.0004808858552077        0.1516583657058402       -0.3543600596543159
-        0.3500000000000000       -0.0004808858552077        0.1516583657058402       -0.3543600596543159
+        0.0000000000000000       -1.7519695409224407       -0.8979527280629411        0.2314283515440728
+        0.0000000000000000       -1.3494538619316243       -1.4791895691619881        0.1229317230114044
