3
s                      x[A]                      y[A]                      z[A]                      q[e]
N        0.7440496170625536       -0.4018095478338377        0.0000000000000000        0.3613484133133580
O        0.0000000000000000        0.1203703525794729        0.0000000000000000       -0.7226967968243936
N       -0.7440496170625536       -0.5611511560931027        0.0000000000000000        0.3613484133133580

        RMSE         2.133576313E+00 kcal/mol
         MAE         1.624126162E+00 kcal/mol
     max. AE         9.671839095E+00 kcal/mol

Coordinates in bohr
s                   x[bohr]                   y[bohr]                   z[bohr]                      q[e]
+        1.4060500000000000       -0.7593100000000000        0.0000000000000000        0.3613484133133580
-        0.0000000000000000        0.2274670000000000        0.0000000000000000       -0.7226967968243936
+       -1.4060500000000000       -1.0604220000000000        0.0000000000000000        0.3613484133133580
