6
s                      x[A]                      y[A]                      z[A]                      q[e]
N        0.0000000000000000        1.0158625337154956       -0.4293384164405516        0.2314283515440728
N       -0.0000000000000000        0.8304780475489590       -0.7543096255392491        0.1229317230114044
O       -0.1852120237345000        0.0041043849603106        0.0737821258921317       -0.3543600596543159
O        0.1852120237345000        0.0041043849603106        0.0737821258921317       -0.3543600596543159
N       -0.0000000000000000       -1.0158625337154956       -0.4293384164405516        0.2314283515440728
N        0.0000000000000000       -0.8304780475489590       -0.7543096255392491        0.1229317230114044

        RMSE         8.988214793E-01 kcal/mol
         MAE         5.928075014E-01 kcal/mol
     max. AE         6.224124876E+00 kcal/mol

Coordinates in bohr
s                   x[bohr]                   y[bohr]                   z[bohr]                      q[e]
+        0.0000000000000000        1.9197019698359559       -0.8113320222104031        0.2314283515440728
+       -0.0000000000000000        1.5693760630724765       -1.4254386060658304        0.1229317230114044
-       -0.3500000000000000        0.0077561634884351        0.1394280108901798       -0.3543600596543159
-        0.3500000000000000        0.0077561634884351        0.1394280108901798       -0.3543600596543159
+       -0.0000000000000000       -1.9197019698359559       -0.8113320222104031        0.2314283515440728
+        0.0000000000000000       -1.5693760630724765       -1.4254386060658304        0.1229317230114044
