6
s                      x[A]                      y[A]                      z[A]                      q[e]
N        0.2447210498688702       -0.4926944215805256        0.0737617092368427        0.5225510325000000
N        1.3080293920227677       -0.4961626351094596       -0.2652078336295333        0.0948963128000000
O        0.0410779821587660       -0.2055075272223108       -0.4461856938463545       -0.6174473453000000
O        0.0410779821587660       -0.2055075272223108        0.4461856938463545       -0.6174473453000000
N       -0.2471141387451172       -0.4461938993714561        0.0737617092368427        0.5225510325000000
N       -1.3076211665486648       -0.3689831295369482       -0.2652078336295333        0.0948963128000000

        RMSE         4.179926254E+00 kcal/mol
         MAE         3.224012088E+00 kcal/mol
     max. AE         2.294673521E+01 kcal/mol

Coordinates in bohr
s                   x[bohr]                   y[bohr]                   z[bohr]                      q[e]
+        0.4624557613866721       -0.9310575203280524        0.1393894290032856        0.5225510325000000
+        2.4718173149721432       -0.9376114940423452       -0.5011701718858023        0.0948963128000000
-        0.0776261360665106       -0.3883529431702366       -0.8431687624669841       -0.6174473453000000
-        0.0776261360665106       -0.3883529431702366        0.8431687624669841       -0.6174473453000000
+       -0.4669780439566584       -0.8431842686621418        0.1393894290032856        0.5225510325000000
+       -2.4710458806286537       -0.6972770597391610       -0.5011701718858023        0.0948963128000000
