6
s                      x[A]                      y[A]                      z[A]                      q[e]
N        0.0000000000000000        1.0356100789921125       -0.2610752549831803        0.1979110689179275
N        0.0000000000000000        0.7901812717209280       -0.7993201023371133        0.1054997195048966
O       -0.2910474658684998        0.0033915057448069        0.1092938791168560       -0.3034107735216629
O        0.2910474658684998        0.0033915057448069        0.1092938791168560       -0.3034107735216629
N        0.0000000000000000       -1.0356100789921125       -0.2610752549831803        0.1979110689179275
N        0.0000000000000000       -0.7901812717209280       -0.7993201023371133        0.1054997195048966

        RMSE         1.073445807E+00 kcal/mol
         MAE         8.790829877E-01 kcal/mol
     max. AE         4.493678123E+00 kcal/mol

Coordinates in bohr
s                   x[bohr]                   y[bohr]                   z[bohr]                      q[e]
+        0.0000000000000000        1.9570194220588404       -0.4933607300522799        0.1979110689179275
+        0.0000000000000000        1.4932261930185287       -1.5104960799900677        0.1054997195048966
-       -0.5499999999999997        0.0064090170106018        0.2065354987197525       -0.3034107735216629
-        0.5499999999999997        0.0064090170106018        0.2065354987197525       -0.3034107735216629
+        0.0000000000000000       -1.9570194220588404       -0.4933607300522799        0.1979110689179275
+        0.0000000000000000       -1.4932261930185287       -1.5104960799900677        0.1054997195048966
