6
s                      x[A]                      y[A]                      z[A]                      q[e]
N        0.0000000000000000        1.0696522561769328       -0.2998872411994303        0.1979110689179275
N       -0.0000000000000000        0.8148673114806420       -0.8337668597444003        0.1054997195048966
O       -0.2910474658684998        0.0034887768282331        0.1176699798622935       -0.3034107735216629
O        0.2910474658684998        0.0034887768282331        0.1176699798622935       -0.3034107735216629
N       -0.0000000000000000       -1.0696522561769328       -0.2998872411994303        0.1979110689179275
N        0.0000000000000000       -0.8148673114806420       -0.8337668597444003        0.1054997195048966

        RMSE         8.057785472E-01 kcal/mol
         MAE         6.070304536E-01 kcal/mol
     max. AE         4.143239411E+00 kcal/mol

Coordinates in bohr
s                   x[bohr]                   y[bohr]                   z[bohr]                      q[e]
+        0.0000000000000000        2.0213498136524595       -0.5667047543860365        0.1979110689179275
+       -0.0000000000000000        1.5398760472865507       -1.5755910173999261        0.1054997195048966
-       -0.5499999999999997        0.0065928327182040        0.2223640351278725       -0.3034107735216629
-        0.5499999999999997        0.0065928327182040        0.2223640351278725       -0.3034107735216629
+       -0.0000000000000000       -2.0213498136524595       -0.5667047543860365        0.1979110689179275
+        0.0000000000000000       -1.5398760472865507       -1.5755910173999261        0.1054997195048966
