3
s                      x[A]                      y[A]                      z[A]                      q[e]
N        0.6736600520308622       -0.4810136176636593        0.0000000000000000        0.3379860774420776
O        0.0000000000000000        0.1292838135159984        0.0000000000000000       -0.6759721250818329
N       -0.6736600520308622       -0.5532579488187490        0.0000000000000000        0.3379860774420776

        RMSE         2.063118573E+00 kcal/mol
         MAE         1.589275009E+00 kcal/mol
     max. AE         9.173712283E+00 kcal/mol

Coordinates in bohr
s                   x[bohr]                   y[bohr]                   z[bohr]                      q[e]
+        1.2730330000000001       -0.9089840000000000        0.0000000000000000        0.3379860774420776
-        0.0000000000000000        0.2443110000000000        0.0000000000000000       -0.6759721250818329
+       -1.2730330000000001       -1.0455060000000000        0.0000000000000000        0.3379860774420776
