6
s                      x[A]                      y[A]                      z[A]                      q[e]
N        0.5600246758693497       -0.1123207260143017        0.0000000000000000        0.5225510325000000
N        1.1090725952354918       -0.6867469961374746       -0.0000000000000000        0.0948963129000000
O       -0.0013158334173974        0.1138926463528562       -0.3455139784000000       -0.6174473453000000
O       -0.0013158334173974        0.1138926463528562        0.3455139784000000       -0.6174473453000000
N       -0.5323615816918184       -0.0376131566441983        0.0000000000000000        0.5225510325000000
N       -1.1307278165624317       -0.5604678272121069        0.0000000000000000        0.0948963129000000

        RMSE         1.205186286E+00 kcal/mol
         MAE         9.084670759E-01 kcal/mol
     max. AE         5.410250964E+00 kcal/mol

Coordinates in bohr
s                   x[bohr]                   y[bohr]                   z[bohr]                      q[e]
+        1.0582932608913622       -0.2122554103796166        0.0000000000000000        0.5225510325000000
+        2.0958434582458243       -1.2977637401806719       -0.0000000000000000        0.0948963129000000
-       -0.0024865647856063        0.2152259093105215       -0.6529267916933517       -0.6174473453000000
-       -0.0024865647856063        0.2152259093105215        0.6529267916933517       -0.6174473453000000
+       -1.0060175891130809       -0.0710785647714793        0.0000000000000000        0.5225510325000000
+       -2.1367658957399138       -1.0591306955613022        0.0000000000000000        0.0948963129000000
