6
s                      x[A]                      y[A]                      z[A]                      q[e]
N        0.9672775350139585       -0.5055363595633633        0.0000000000000000        0.2314283515440728
N        0.7559565606526693       -0.8142711004807007        0.0000000000000000        0.1229317230114044
O        0.0000183104140444        0.0785818359338859       -0.1852120237345000       -0.3543600596543159
O        0.0000183104140444        0.0785818359338859        0.1852120237345000       -0.3543600596543159
N       -0.9641204663210664       -0.4159692744153463       -0.0000000000000000        0.2314283515440728
N       -0.7713406709087322       -0.7366087057632057        0.0000000000000000        0.1229317230114044

        RMSE         9.947933881E-01 kcal/mol
         MAE         6.908614987E-01 kcal/mol
     max. AE         6.067467517E+00 kcal/mol

Coordinates in bohr
s                   x[bohr]                   y[bohr]                   z[bohr]                      q[e]
+        1.8278896284843265       -0.9553252660357300        0.0000000000000000        0.2314283515440728
+        1.4285508623765943       -1.5387493717836764        0.0000000000000000        0.1229317230114044
-        0.0000346016677877        0.1484981483507049       -0.3500000000000000       -0.3543600596543159
-        0.0000346016677877        0.1484981483507049        0.3500000000000000       -0.3543600596543159
+       -1.8219236332955033       -0.7860680052504164       -0.0000000000000000        0.2314283515440728
+       -1.4576226174444000       -1.3919887155204080        0.0000000000000000        0.1229317230114044
