6
s                      x[A]                      y[A]                      z[A]                      q[e]
N        0.5043925393449318       -0.1908389454983144        0.0000000000000000        0.5225510325000000
N        0.9216971640630239       -0.8670608083190920        0.0000000000000000        0.0948963129000000
O        0.0025087502125464        0.1473744999507106       -0.3455139784000000       -0.6174473453000000
O        0.0025087502125464        0.1473744999507106        0.3455139784000000       -0.6174473453000000
N       -0.4844229457093033       -0.1286099536507806        0.0000000000000000        0.5225510325000000
N       -0.9388296982924579       -0.7804793123222418        0.0000000000000000        0.0948963129000000

        RMSE         1.533561126E+00 kcal/mol
         MAE         1.229197218E+00 kcal/mol
     max. AE         5.608618758E+00 kcal/mol

Coordinates in bohr
s                   x[bohr]                   y[bohr]                   z[bohr]                      q[e]
+        0.9531637590861332       -0.3606333410629873        0.0000000000000000        0.5225510325000000
+        1.7417552106902865       -1.6385074618411704        0.0000000000000000        0.0948963129000000
-        0.0047408508188969        0.2784974427831413       -0.6529267916933517       -0.6174473453000000
-        0.0047408508188969        0.2784974427831413        0.6529267916933517       -0.6174473453000000
+       -0.9154266962781096       -0.2430375894078005        0.0000000000000000        0.5225510325000000
+       -1.7741310082189483       -1.4748921468747000        0.0000000000000000        0.0948963129000000
