6
s                      x[A]                      y[A]                      z[A]                      q[e]
N        1.0604421801699706       -0.4242552973296104        0.0000000000000000        0.1979110689179275
N        0.7534666511535295       -0.9299319130898125       -0.0000000000000000        0.1054997195048966
O        0.0040264187967803        0.1311322534886739       -0.2910474658684998       -0.3034107735216629
O        0.0040264187967803        0.1311322534886739        0.2910474658684998       -0.3034107735216629
N       -1.0526375046454528       -0.3277587042112313        0.0000000000000000        0.1979110689179275
N       -0.7770719907136466       -0.8512149704581017        0.0000000000000000        0.1054997195048966

        RMSE         8.251091986E-01 kcal/mol
         MAE         5.401959533E-01 kcal/mol
     max. AE         4.909251349E+00 kcal/mol

Coordinates in bohr
s                   x[bohr]                   y[bohr]                   z[bohr]                      q[e]
+        2.0039452924046506       -0.8017263192276436        0.0000000000000000        0.1979110689179275
+        1.4238456153460444       -1.7573166310627972       -0.0000000000000000        0.1054997195048966
-        0.0076088287923102        0.2478040453077055       -0.5499999999999997       -0.3034107735216629
-        0.0076088287923102        0.2478040453077055        0.5499999999999997       -0.3034107735216629
+       -1.9891965931652482       -0.6193741861941685        0.0000000000000000        0.1979110689179275
+       -1.4684532422131009       -1.6085631680554882        0.0000000000000000        0.1054997195048966
