3
s                      x[A]                      y[A]                      z[A]                      q[e]
N        0.0000000000000000        0.6340072161037270       -0.5211162542198639        0.3613484133133580
O        0.0000000000000000        0.0000000000000000        0.1302791958492686       -0.7226967968243936
N        0.0000000000000000       -0.6340072161037270       -0.5211162542198639        0.3613484133133580

        RMSE         1.872107339E+00 kcal/mol
         MAE         1.437658940E+00 kcal/mol
     max. AE         7.005859906E+00 kcal/mol

Coordinates in bohr
s                   x[bohr]                   y[bohr]                   z[bohr]                      q[e]
+        0.0000000000000000        1.1980999999999999       -0.9847669999999999        0.3613484133133580
-        0.0000000000000000        0.0000000000000000        0.2461920000000000       -0.7226967968243936
+        0.0000000000000000       -1.1980999999999999       -0.9847669999999999        0.3613484133133580
