6
s                      x[A]                      y[A]                      z[A]                      q[e]
N        1.0221621970746806       -0.3991729631996974        0.0000000000000000        0.1979110689179275
N        0.7143615683505004       -0.9043477726455112       -0.0000000000000000        0.1054997195048966
O        0.0040348465997911        0.1247310961290061       -0.2910474658684998       -0.3034107735216629
O        0.0040348465997911        0.1247310961290061        0.2910474658684998       -0.3034107735216629
N       -1.0139401022070353       -0.3016970205500722        0.0000000000000000        0.1979110689179275
N       -0.7392294028571169       -0.8256024001791553        0.0000000000000000        0.1054997195048966

        RMSE         6.978309264E-01 kcal/mol
         MAE         4.725740603E-01 kcal/mol
     max. AE         4.126191171E+00 kcal/mol

Coordinates in bohr
s                   x[bohr]                   y[bohr]                   z[bohr]                      q[e]
+        1.9316066082673971       -0.7543275771348844        0.0000000000000000        0.1979110689179275
+        1.3499477187349684       -1.7089696124678189       -0.0000000000000000        0.1054997195048966
-        0.0076247550318400        0.2357076110119745       -0.5499999999999997       -0.3034107735216629
-        0.0076247550318400        0.2357076110119745        0.5499999999999997       -0.3034107735216629
+       -1.9160691007900152       -0.5701247417062587        0.0000000000000000        0.1979110689179275
+       -1.3969411152856834       -1.5601624248592385        0.0000000000000000        0.1054997195048966
