6
s                      x[A]                      y[A]                      z[A]                      q[e]
N        0.0000000000000000        0.5077183738508467       -0.1797317748419505        0.5225510325000000
N       -0.0000000000000000        0.9320841109985901       -0.8515449026557517        0.0948963129000000
O       -0.3455139784000000        0.0023190968953887        0.1532053917687017       -0.6174473453000000
O        0.3455139784000000        0.0023190968953887        0.1532053917687017       -0.6174473453000000
N        0.0000000000000000       -0.5077183738508467       -0.1797317748419505        0.5225510325000000
N        0.0000000000000000       -0.9320841109985901       -0.8515449026557517        0.0948963129000000

        RMSE         2.203877063E+00 kcal/mol
         MAE         1.831747463E+00 kcal/mol
     max. AE         8.327445737E+00 kcal/mol

Coordinates in bohr
s                   x[bohr]                   y[bohr]                   z[bohr]                      q[e]
+        0.0000000000000000        0.9594486754409097       -0.3396438304937379        0.5225510325000000
+       -0.0000000000000000        1.7613836956781699       -1.6091866495490170        0.0948963129000000
-       -0.6529267916933517        0.0043824579906843        0.2895162313863174       -0.6174473453000000
-        0.6529267916933517        0.0043824579906843        0.2895162313863174       -0.6174473453000000
+        0.0000000000000000       -0.9594486754409097       -0.3396438304937379        0.5225510325000000
+        0.0000000000000000       -1.7613836956781699       -1.6091866495490170        0.0948963129000000
