3
s                      x[A]                      y[A]                      z[A]                      q[e]
N        0.0000000000000000        0.7162672843251677       -0.5685305322958959        0.3379860774420776
O        0.0000000000000000        0.0000000000000000        0.1421327653682767       -0.6759721250818329
N        0.0000000000000000       -0.7162672843251677       -0.5685305322958959        0.3379860774420776

        RMSE         2.464167437E+00 kcal/mol
         MAE         1.947361091E+00 kcal/mol
     max. AE         8.888941641E+00 kcal/mol

Coordinates in bohr
s                   x[bohr]                   y[bohr]                   z[bohr]                      q[e]
+        0.0000000000000000        1.3535489999999999       -1.0743670000000001        0.3379860774420776
-        0.0000000000000000        0.0000000000000000        0.2685920000000000       -0.6759721250818329
+        0.0000000000000000       -1.3535489999999999       -1.0743670000000001        0.3379860774420776
