6
s                      x[A]                      y[A]                      z[A]                      q[e]
N        0.9233754342399720       -0.5578432299976939        0.0000000000000000        0.2314283515440728
N        0.6921635640211050       -0.8519771544678131        0.0000000000000000        0.1229317230114044
O       -0.0032776399623513        0.0887622616315363       -0.1852120237345000       -0.3543600596543159
O       -0.0032776399623513        0.0887622616315363        0.1852120237345000       -0.3543600596543159
N       -0.9214284695485745       -0.4753756788596674        0.0000000000000000        0.2314283515440728
N       -0.7055734589223995       -0.7809575972414230        0.0000000000000000        0.1229317230114044

        RMSE         1.385547754E+00 kcal/mol
         MAE         1.044356052E+00 kcal/mol
     max. AE         6.866686030E+00 kcal/mol

Coordinates in bohr
s                   x[bohr]                   y[bohr]                   z[bohr]                      q[e]
+        1.7449266816892419       -1.0541709256364222        0.0000000000000000        0.2314283515440728
+        1.3079995700206841       -1.6100034870910460        0.0000000000000000        0.1229317230114044
-       -0.0061938418666999        0.1677363647598371       -0.3500000000000000       -0.3543600596543159
-       -0.0061938418666999        0.1677363647598371        0.3500000000000000       -0.3543600596543159
+       -1.7412474516465641       -0.8983298397483640        0.0000000000000000        0.2314283515440728
+       -1.3333405987553042       -1.4757959743818894        0.0000000000000000        0.1229317230114044
