6
s                      x[A]                      y[A]                      z[A]                      q[e]
N        0.0000000000000000        1.1557167725391571       -0.2055130878925470        0.1979110689179275
N       -0.0000000000000000        0.9678945089679089       -0.7664637207013419        0.1054997195048966
O       -0.2910474658684998        0.0027872320408049        0.1030675383701472       -0.3034107735216629
O        0.2910474658684998        0.0027872320408049        0.1030675383701472       -0.3034107735216629
N       -0.0000000000000000       -1.1557167725391571       -0.2055130878925470        0.1979110689179275
N        0.0000000000000000       -0.9678945089679089       -0.7664637207013419        0.1054997195048966

        RMSE         1.283434479E+00 kcal/mol
         MAE         1.000533577E+00 kcal/mol
     max. AE         4.659468432E+00 kcal/mol

Coordinates in bohr
s                   x[bohr]                   y[bohr]                   z[bohr]                      q[e]
+        0.0000000000000000        2.1839881786970472       -0.3883634513140570        0.1979110689179275
+       -0.0000000000000000        1.8290555402838335       -1.4484065172249379        0.1054997195048966
-       -0.5499999999999997        0.0052671052052221        0.1947694199446943       -0.3034107735216629
-        0.5499999999999997        0.0052671052052221        0.1947694199446943       -0.3034107735216629
+       -0.0000000000000000       -2.1839881786970472       -0.3883634513140570        0.1979110689179275
+        0.0000000000000000       -1.8290555402838335       -1.4484065172249379        0.1054997195048966
