3
s                      x[A]                      y[A]                      z[A]                      q[e]
N        0.0000000000000000        0.8387083073299925       -0.4487491539518987        0.3613484133133580
O        0.0000000000000000        0.0000000000000000        0.1121871561936720       -0.7226967968243936
N        0.0000000000000000       -0.8387083073299925       -0.4487491539518987        0.3613484133133580

        RMSE         2.387449081E+00 kcal/mol
         MAE         1.810086640E+00 kcal/mol
     max. AE         9.905543382E+00 kcal/mol

Coordinates in bohr
s                   x[bohr]                   y[bohr]                   z[bohr]                      q[e]
+        0.0000000000000000        1.5849290000000000       -0.8480130000000000        0.3613484133133580
-        0.0000000000000000        0.0000000000000000        0.2120030000000000       -0.7226967968243936
+        0.0000000000000000       -1.5849290000000000       -0.8480130000000000        0.3613484133133580
