3
s                      x[A]                      y[A]                      z[A]                      q[e]
N        0.8610147142913649       -0.3274612080891240        0.0000000000000000        0.3613484133133580
O        0.0000000000000000        0.0948354354558027        0.0000000000000000       -0.7226967968243936
N       -0.8610147142913649       -0.4312201588484549        0.0000000000000000        0.3613484133133580

        RMSE         2.635348125E+00 kcal/mol
         MAE         2.033472841E+00 kcal/mol
     max. AE         1.014796497E+01 kcal/mol

Coordinates in bohr
s                   x[bohr]                   y[bohr]                   z[bohr]                      q[e]
+        1.6270819999999999       -0.6188120000000000        0.0000000000000000        0.3613484133133580
-        0.0000000000000000        0.1792130000000000        0.0000000000000000       -0.7226967968243936
+       -1.6270819999999999       -0.8148879999999999        0.0000000000000000        0.3613484133133580
