6
s                      x[A]                      y[A]                      z[A]                      q[e]
N        0.5770953222335604       -0.1729168680507761        0.0000000000000000        0.5225510325000000
N        1.0699380993979388       -0.7962347280265778        0.0000000000000000        0.0948963129000000
O        0.0003958271406431        0.1361464443009026       -0.3455139784000000       -0.6174473453000000
O        0.0003958271406431        0.1361464443009026        0.3455139784000000       -0.6174473453000000
N       -0.5544672112014614       -0.1045011875400947        0.0000000000000000        0.5225510325000000
N       -1.0884997446280653       -0.6929129573152016        0.0000000000000000        0.0948963129000000

        RMSE         6.632368482E-01 kcal/mol
         MAE         4.788522328E-01 kcal/mol
     max. AE         4.045024953E+00 kcal/mol

Coordinates in bohr
s                   x[bohr]                   y[bohr]                   z[bohr]                      q[e]
+        1.0905521073042630       -0.3267655230878956        0.0000000000000000        0.5225510325000000
+        2.0218899790549796       -1.5046655675486325        0.0000000000000000        0.0948963129000000
-        0.0007480048888385        0.2572794926836047       -0.6529267916933517       -0.6174473453000000
-        0.0007480048888385        0.2572794926836047        0.6529267916933517       -0.6174473453000000
+       -1.0477911747171449       -0.1974786242358850        0.0000000000000000        0.5225510325000000
+       -2.0569664049778291       -1.3094157181067814        0.0000000000000000        0.0948963129000000
