3
s                      x[A]                      y[A]                      z[A]                      q[e]
N        0.0000000000000000        0.6807732520966883       -0.5403576667770358        0.3379860774420776
O        0.0000000000000000        0.0000000000000000        0.1350894166942589       -0.6759721250818329
N        0.0000000000000000       -0.6807732520966883       -0.5403576667770358        0.3379860774420776

        RMSE         2.164715835E+00 kcal/mol
         MAE         1.689111531E+00 kcal/mol
     max. AE         8.288521116E+00 kcal/mol

Coordinates in bohr
s                   x[bohr]                   y[bohr]                   z[bohr]                      q[e]
+        0.0000000000000000        1.2864750000000000       -1.0211280000000000        0.3379860774420776
-        0.0000000000000000        0.0000000000000000        0.2552820000000000       -0.6759721250818329
+        0.0000000000000000       -1.2864750000000000       -1.0211280000000000        0.3379860774420776
