3
s                      x[A]                      y[A]                      z[A]                      q[e]
N        0.0000000000000000        0.8844054053574003       -0.3885626547191356        0.3613484133133580
O        0.0000000000000000        0.0000000000000000        0.0971405313854812       -0.7226967968243936
N        0.0000000000000000       -0.8844054053574003       -0.3885626547191356        0.3613484133133580

        RMSE         2.655275606E+00 kcal/mol
         MAE         2.042977043E+00 kcal/mol
     max. AE         1.023156932E+01 kcal/mol

Coordinates in bohr
s                   x[bohr]                   y[bohr]                   z[bohr]                      q[e]
+        0.0000000000000000        1.6712840000000000       -0.7342770000000000        0.3613484133133580
-        0.0000000000000000        0.0000000000000000        0.1835690000000000       -0.7226967968243936
+        0.0000000000000000       -1.6712840000000000       -0.7342770000000000        0.3613484133133580
