6
s                      x[A]                      y[A]                      z[A]                      q[e]
N        0.9775815918705762       -0.2980172259356603        0.0000000000000000        0.2314283515440728
N        0.8224578909189869       -0.6384732904394108        0.0000000000000000        0.1229317230114044
O        0.0086104861733776        0.0573663468842422       -0.1852120237345000       -0.3543600596543159
O        0.0086104861733776        0.0573663468842422        0.1852120237345000       -0.3543600596543159
N       -0.9834718634648980       -0.4021506366733809        0.0000000000000000        0.2314283515440728
N       -0.8025996884988897       -0.7296547599716467        0.0000000000000000        0.1229317230114044

        RMSE         1.080156343E+00 kcal/mol
         MAE         8.519363858E-01 kcal/mol
     max. AE         5.319217483E+00 kcal/mol

Coordinates in bohr
s                   x[bohr]                   y[bohr]                   z[bohr]                      q[e]
+        1.8473614739244799       -0.5631709376870856        0.0000000000000000        0.2314283515440728
+        1.5542201635585542       -1.2065396573503784        0.0000000000000000        0.1229317230114044
-        0.0162714606747251        0.1084066844292287       -0.3500000000000000       -0.3543600596543159
-        0.0162714606747251        0.1084066844292287        0.3500000000000000       -0.3543600596543159
+       -1.8584924740423119       -0.7599545644911868        0.0000000000000000        0.2314283515440728
+       -1.5166935996406667       -1.3788476624830817        0.0000000000000000        0.1229317230114044
