6
s                      x[A]                      y[A]                      z[A]                      q[e]
N        1.0536202498932465       -0.3421579428702931        0.0000000000000000        0.1979110689179275
N        0.7791924195230180       -0.8662115480099809        0.0000000000000000        0.1054997195048966
O        0.0036921431014503        0.1146891475256263       -0.2910474658684998       -0.3034107735216629
O        0.0036921431014503        0.1146891475256263        0.2910474658684998       -0.3034107735216629
N       -1.0425862696832853       -0.2350399935797427        0.0000000000000000        0.1979110689179275
N       -0.8077950693211270       -0.7780095206934765        0.0000000000000000        0.1054997195048966

        RMSE         8.808926555E-01 kcal/mol
         MAE         6.943166832E-01 kcal/mol
     max. AE         3.987703129E+00 kcal/mol

Coordinates in bohr
s                   x[bohr]                   y[bohr]                   z[bohr]                      q[e]
+        1.9910537125346737       -0.6465848036748999        0.0000000000000000        0.1979110689179275
+        1.4724602719313433       -1.6369025924477287        0.0000000000000000        0.1054997195048966
-        0.0069771392777395        0.2167310783856630       -0.5499999999999997       -0.3034107735216629
-        0.0069771392777395        0.2167310783856630        0.5499999999999997       -0.3034107735216629
+       -1.9702025118641249       -0.4441612163950800        0.0000000000000000        0.1979110689179275
+       -1.5265114465121510       -1.4702249171093853        0.0000000000000000        0.1054997195048966
