6
s                      x[A]                      y[A]                      z[A]                      q[e]
N        0.5095933305900976       -0.1848647834311762        0.0000000000000000        0.5225510325000000
N        0.9379713032364767       -0.8541266679870565        0.0000000000000000        0.0948963129000000
O        0.0022106574049635        0.1450426268301336       -0.3455139784000000       -0.6174473453000000
O        0.0022106574049635        0.1450426268301336        0.3455139784000000       -0.6174473453000000
N       -0.4890976908897425       -0.1220013789368181        0.0000000000000000        0.5225510325000000
N       -0.9554513248738747       -0.7653779759915326        0.0000000000000000        0.0948963129000000

        RMSE         1.305841066E+00 kcal/mol
         MAE         1.002077545E+00 kcal/mol
     max. AE         4.702886012E+00 kcal/mol

Coordinates in bohr
s                   x[bohr]                   y[bohr]                   z[bohr]                      q[e]
+        0.9629918301751753       -0.3493438109269971        0.0000000000000000        0.5225510325000000
+        1.7725088766556967       -1.6140654789453850        0.0000000000000000        0.0948963129000000
-        0.0041775370525964        0.2740908412259341       -0.6529267916933517       -0.6174473453000000
-        0.0041775370525964        0.2740908412259341        0.6529267916933517       -0.6174473453000000
+       -0.9242606843754436       -0.2305491931187856        0.0000000000000000        0.5225510325000000
+       -1.8055413302174559       -1.4463547570812334        0.0000000000000000        0.0948963129000000
