3
s                      x[A]                      y[A]                      z[A]                      q[e]
N        0.6662055326641538       -0.6201713487535492        0.0000000000000000        0.3379860774420776
O        0.0000000000000000        0.1376220588245256        0.0000000000000000       -0.6759721250818329
N       -0.6662055326641538       -0.4808040634882340        0.0000000000000000        0.3379860774420776

        RMSE         2.218042956E+00 kcal/mol
         MAE         1.720496409E+00 kcal/mol
     max. AE         9.513999751E+00 kcal/mol

Coordinates in bohr
s                   x[bohr]                   y[bohr]                   z[bohr]                      q[e]
+        1.2589459999999999       -1.1719539999999999        0.0000000000000000        0.3379860774420776
-        0.0000000000000000        0.2600680000000000        0.0000000000000000       -0.6759721250818329
+       -1.2589459999999999       -0.9085880000000000        0.0000000000000000        0.3379860774420776
