6
s                      x[A]                      y[A]                      z[A]                      q[e]
N        0.0000000000000000        1.0957870282456625       -0.2353968528244084        0.1979110689179275
N       -0.0000000000000000        0.8788640675818360       -0.7857487804838423        0.1054997195048966
O       -0.2910474658684998        0.0030936100508028        0.1067717730034830       -0.3034107735216629
O        0.2910474658684998        0.0030936100508028        0.1067717730034830       -0.3034107735216629
N       -0.0000000000000000       -1.0957870282456625       -0.2353968528244084        0.1979110689179275
N        0.0000000000000000       -0.8788640675818360       -0.7857487804838423        0.1054997195048966

        RMSE         1.151277842E+00 kcal/mol
         MAE         9.309746625E-01 kcal/mol
     max. AE         4.147211935E+00 kcal/mol

Coordinates in bohr
s                   x[bohr]                   y[bohr]                   z[bohr]                      q[e]
+        0.0000000000000000        2.0707373752136236       -0.4448355826328360        0.1979110689179275
+       -0.0000000000000000        1.6608123892355298       -1.4848499985269450        0.1054997195048966
-       -0.5499999999999997        0.0058460757349810        0.2017694089061347       -0.3034107735216629
-        0.5499999999999997        0.0058460757349810        0.2017694089061347       -0.3034107735216629
+       -0.0000000000000000       -2.0707373752136236       -0.4448355826328360        0.1979110689179275
+        0.0000000000000000       -1.6608123892355298       -1.4848499985269450        0.1054997195048966
