3
s                      x[A]                      y[A]                      z[A]                      q[e]
N        0.0000000000000000        0.8323946940294886       -0.3809880121256052        0.3613484133133580
O        0.0000000000000000        0.0000000000000000        0.0952471353257040       -0.7226967968243936
N        0.0000000000000000       -0.8323946940294886       -0.3809880121256052        0.3613484133133580

        RMSE         2.542575846E+00 kcal/mol
         MAE         1.957117226E+00 kcal/mol
     max. AE         9.851970520E+00 kcal/mol

Coordinates in bohr
s                   x[bohr]                   y[bohr]                   z[bohr]                      q[e]
+        0.0000000000000000        1.5729979999999999       -0.7199630000000000        0.3613484133133580
-        0.0000000000000000        0.0000000000000000        0.1799910000000000       -0.7226967968243936
+        0.0000000000000000       -1.5729979999999999       -0.7199630000000000        0.3613484133133580
