3
s                      x[A]                      y[A]                      z[A]                      q[e]
N        0.7751895792016403       -0.4606593454324484        0.0000000000000000        0.3379860774420776
O        0.0000000000000000        0.1039314625300093        0.0000000000000000       -0.6759721250818329
N       -0.7751895792016403       -0.3707923548076263        0.0000000000000000        0.3379860774420776

        RMSE         2.366824872E+00 kcal/mol
         MAE         1.786251372E+00 kcal/mol
     max. AE         1.020824576E+01 kcal/mol

Coordinates in bohr
s                   x[bohr]                   y[bohr]                   z[bohr]                      q[e]
+        1.4648960000000000       -0.8705200000000000        0.0000000000000000        0.3379860774420776
-        0.0000000000000000        0.1964020000000000        0.0000000000000000       -0.6759721250818329
+       -1.4648960000000000       -0.7006960000000000        0.0000000000000000        0.3379860774420776
