6
s                      x[A]                      y[A]                      z[A]                      q[e]
N        0.5457958495919615       -0.1195830737338345        0.0000000000000000        0.5225510325000000
N        1.0575328956873111       -0.7274846720386231        0.0000000000000000        0.0948963129000000
O       -0.0001646477632833        0.1415735292071136       -0.3455139784000000       -0.6174473453000000
O       -0.0001646477632833        0.1415735292071136        0.3455139784000000       -0.6174473453000000
N       -0.5673273795347611       -0.1861174609287878        0.0000000000000000        0.5225510325000000
N       -1.0396271024428947       -0.8251418182961815        0.0000000000000000        0.0948963129000000

        RMSE         7.768314095E-01 kcal/mol
         MAE         5.907978786E-01 kcal/mol
     max. AE         4.433543740E+00 kcal/mol

Coordinates in bohr
s                   x[bohr]                   y[bohr]                   z[bohr]                      q[e]
+        1.0314046761403810       -0.2259792585973769        0.0000000000000000        0.5225510325000000
+        1.9984475415113798       -1.3747467906215061        0.0000000000000000        0.0948963129000000
-       -0.0003111391797746        0.2675351968159495       -0.6529267916933517       -0.6174473453000000
-       -0.0003111391797746        0.2675351968159495        0.6529267916933517       -0.6174473453000000
+       -1.0720933707943667       -0.3517110283210070        0.0000000000000000        0.5225510325000000
+       -1.9646104962203601       -1.5592920512420703        0.0000000000000000        0.0948963129000000
