6
s                      x[A]                      y[A]                      z[A]                      q[e]
N        1.1235771391103229       -0.1320693583342667        0.0000000000000000        0.1979110689179275
N        0.9618781898370294       -0.7011003460190567        0.0000000000000000        0.1054997195048966
O        0.0025103554187570        0.1008849139388693       -0.2910474658684998       -0.3034107735216629
O        0.0025103554187570        0.1008849139388693        0.2910474658684998       -0.3034107735216629
N       -1.1404955277905453       -0.2609043440711063        0.0000000000000000        0.1979110689179275
N       -0.9269505796737024       -0.8125757773313302        0.0000000000000000        0.1054997195048966

        RMSE         1.379446439E+00 kcal/mol
         MAE         1.102791679E+00 kcal/mol
     max. AE         4.786893515E+00 kcal/mol

Coordinates in bohr
s                   x[bohr]                   y[bohr]                   z[bohr]                      q[e]
+        2.1232530737439417       -0.2495749168167153        0.0000000000000000        0.1979110689179275
+        1.8176863448431189       -1.3248876404397347        0.0000000000000000        0.1054997195048966
-        0.0047438842190097        0.1906448575348460       -0.5499999999999997       -0.3034107735216629
-        0.0047438842190097        0.1906448575348460        0.5499999999999997       -0.3034107735216629
+       -2.1552241948336079       -0.4930377552366078        0.0000000000000000        0.1979110689179275
+       -1.7516827274176736       -1.5355456753372176        0.0000000000000000        0.1054997195048966
