6
s                      x[A]                      y[A]                      z[A]                      q[e]
N        0.4641901491298233       -0.1543816180128872        0.0000000000000000        0.5225510325000000
N        0.8695314147575158       -0.8378416504560803        0.0000000000000000        0.0948963129000000
O        0.0028266842399526        0.1564119405295493       -0.3455139784000000       -0.6174473453000000
O        0.0028266842399526        0.1564119405295493        0.3455139784000000       -0.6174473453000000
N       -0.4821212929161043       -0.2144054883209019        0.0000000000000000        0.5225510325000000
N       -0.8537992497856367       -0.9167406319277135        0.0000000000000000        0.0948963129000000

        RMSE         2.662643055E+00 kcal/mol
         MAE         2.140130119E+00 kcal/mol
     max. AE         1.150833204E+01 kcal/mol

Coordinates in bohr
s                   x[bohr]                   y[bohr]                   z[bohr]                      q[e]
+        0.8771922519907924       -0.2917389768494038        0.0000000000000000        0.5225510325000000
+        1.6431762313735843       -1.5832912558635606        0.0000000000000000        0.0948963129000000
-        0.0053416590566583        0.2955757303522455       -0.6529267916933517       -0.6174473453000000
-        0.0053416590566583        0.2955757303522455        0.6529267916933517       -0.6174473453000000
+       -0.9110772028630685       -0.4051676527215516        0.0000000000000000        0.5225510325000000
+       -1.6134467482162116       -1.7323887224225190        0.0000000000000000        0.0948963129000000
