6
s                      x[A]                      y[A]                      z[A]                      q[e]
N        0.0788556100439512       -0.0177738111906906       -0.5327094512821453        0.5225510325000000
N       -0.5122960556730729        1.4269602946894704       -0.6114419882875378        0.0948963128000000
O       -0.5659595284813393       -0.0902168572784195       -0.3176024873589292       -0.6174473453000000
O        0.5659595284813393       -0.0902168572784195       -0.3176024873589292       -0.6174473453000000
N        0.0788556100439512        0.0177738111906906       -0.5327094512821453        0.5225510325000000
N       -0.5122960556730729       -1.4269602946894704       -0.6114419882875378        0.0948963128000000

        RMSE         7.391854414E+00 kcal/mol
         MAE         6.079259545E+00 kcal/mol
     max. AE         3.665691583E+01 kcal/mol

Coordinates in bohr
s                   x[bohr]                   y[bohr]                   z[bohr]                      q[e]
+        0.1490155064389693       -0.0335876353560027       -1.0066749673661741        0.5225510325000000
+       -0.9680992403744039        2.6965641488656935       -1.1554578994688396        0.0948963128000000
-       -1.0695085069229808       -0.1704851521557296       -0.6001817178725581       -0.6174473453000000
-        1.0695085069229808       -0.1704851521557296       -0.6001817178725581       -0.6174473453000000
+        0.1490155064389693        0.0335876353560027       -1.0066749673661741        0.5225510325000000
+       -0.9680992403744039       -2.6965641488656935       -1.1554578994688396        0.0948963128000000
