3
s                      x[A]                      y[A]                      z[A]                      q[e]
N        0.0000000000000000        0.7374888780046668       -0.4251240373815365        0.3379860774420776
O        0.0000000000000000        0.0000000000000000        0.1062810093453841       -0.6759721250818329
N        0.0000000000000000       -0.7374888780046668       -0.4251240373815365        0.3379860774420776

        RMSE         2.249062022E+00 kcal/mol
         MAE         1.686481951E+00 kcal/mol
     max. AE         9.674025387E+00 kcal/mol

Coordinates in bohr
s                   x[bohr]                   y[bohr]                   z[bohr]                      q[e]
+        0.0000000000000000        1.3936519999999999       -0.8033680000000000        0.3379860774420776
-        0.0000000000000000        0.0000000000000000        0.2008420000000000       -0.6759721250818329
+        0.0000000000000000       -1.3936519999999999       -0.8033680000000000        0.3379860774420776
