6
s                      x[A]                      y[A]                      z[A]                      q[e]
N        0.0000000000000000        0.5234990293702161       -0.1600395829835898        0.5225510325000000
N       -0.0000000000000000        0.9824431074430235       -0.8087224722059054        0.0948963129000000
O       -0.3455139784000000        0.0013678035448620        0.1459908241325703       -0.6174473453000000
O        0.3455139784000000        0.0013678035448620        0.1459908241325703       -0.6174473453000000
N        0.0000000000000000       -0.5234990293702161       -0.1600395829835898        0.5225510325000000
N        0.0000000000000000       -0.9824431074430235       -0.8087224722059054        0.0948963129000000

        RMSE         1.477106667E+00 kcal/mol
         MAE         1.223203643E+00 kcal/mol
     max. AE         5.429439946E+00 kcal/mol

Coordinates in bohr
s                   x[bohr]                   y[bohr]                   z[bohr]                      q[e]
+        0.0000000000000000        0.9892697924527123       -0.3024309810714657        0.5225510325000000
+       -0.0000000000000000        1.8565484069110536       -1.5282639839723418        0.0948963129000000
-       -0.6529267916933517        0.0025847740932196        0.2758826744404372       -0.6174473453000000
-        0.6529267916933517        0.0025847740932196        0.2758826744404372       -0.6174473453000000
+        0.0000000000000000       -0.9892697924527123       -0.3024309810714657        0.5225510325000000
+        0.0000000000000000       -1.8565484069110536       -1.5282639839723418        0.0948963129000000
