3
s                      x[A]                      y[A]                      z[A]                      q[e]
N        0.7471119655807008       -0.4058836831787860        0.0000000000000000        0.3379860774420776
O        0.0000000000000000        0.1119040463859636        0.0000000000000000       -0.6759721250818329
N       -0.7471119655807008       -0.4893481587317118        0.0000000000000000        0.3379860774420776

        RMSE         2.220817759E+00 kcal/mol
         MAE         1.662577233E+00 kcal/mol
     max. AE         1.006324386E+01 kcal/mol

Coordinates in bohr
s                   x[bohr]                   y[bohr]                   z[bohr]                      q[e]
+        1.4118370000000000       -0.7670090000000001        0.0000000000000000        0.3379860774420776
-        0.0000000000000000        0.2114680000000000        0.0000000000000000       -0.6759721250818329
+       -1.4118370000000000       -0.9247339999999999        0.0000000000000000        0.3379860774420776
