6
s                      x[A]                      y[A]                      z[A]                      q[e]
N        1.0939803478644010       -0.3649706888640655        0.0000000000000000        0.1979110689179275
N        0.8205408231662475       -0.8895406474725079        0.0000000000000000        0.1054997195048966
O        0.0036819392677758        0.1205382138490902       -0.2910474658684998       -0.3034107735216629
O        0.0036819392677758        0.1205382138490902        0.2910474658684998       -0.3034107735216629
N       -1.0835062589316324       -0.2589449149631425        0.0000000000000000        0.1979110689179275
N       -0.8476920991969359       -0.8014709486336327        0.0000000000000000        0.1054997195048966

        RMSE         7.728017971E-01 kcal/mol
         MAE         5.492929891E-01 kcal/mol
     max. AE         4.316355883E+00 kcal/mol

Coordinates in bohr
s                   x[bohr]                   y[bohr]                   z[bohr]                      q[e]
+        2.0673232440968015       -0.6896946457727651        0.0000000000000000        0.1979110689179275
+        1.5505974305419299       -1.6809882011854702        0.0000000000000000        0.1054997195048966
-        0.0069578568266650        0.2277842118266483       -0.5499999999999997       -0.3034107735216629
-        0.0069578568266650        0.2277842118266483        0.5499999999999997       -0.3034107735216629
+       -2.0475300846001803       -0.4893349708603061        0.0000000000000000        0.1979110689179275
+       -1.6019059061966385       -1.5145605904284447        0.0000000000000000        0.1054997195048966
