6
s                      x[A]                      y[A]                      z[A]                      q[e]
N        0.0782276048915806       -0.0570684587439178       -0.4979832120218453        0.5225510325000000
N       -0.4988985301200274        1.3662848599514530       -0.6077228592447604        0.0948963128000000
O       -0.5602251151190981       -0.0950119666061946       -0.3119590881720183       -0.6174473453000000
O        0.5602251151190981       -0.0950119666061946       -0.3119590881720183       -0.6174473453000000
N        0.0782276048915806        0.0570684587439178       -0.4979832120218453        0.5225510325000000
N       -0.4988985301200274       -1.3662848599514530       -0.6077228592447604        0.0948963128000000

        RMSE         8.045370511E+00 kcal/mol
         MAE         6.667784852E+00 kcal/mol
     max. AE         3.701161839E+01 kcal/mol

Coordinates in bohr
s                   x[bohr]                   y[bohr]                   z[bohr]                      q[e]
+        0.1478287486956124       -0.1078437574279937       -0.9410518857970858        0.5225510325000000
+       -0.9427815863203250        2.5819041946677506       -1.1484297641527541        0.0948963128000000
-       -1.0586720361781790       -0.1795465955268528       -0.5895172389926652       -0.6174473453000000
-        1.0586720361781790       -0.1795465955268528       -0.5895172389926652       -0.6174473453000000
+        0.1478287486956124        0.1078437574279937       -0.9410518857970858        0.5225510325000000
+       -0.9427815863203250       -2.5819041946677506       -1.1484297641527541        0.0948963128000000
