6
s                      x[A]                      y[A]                      z[A]                      q[e]
N        0.9108824888860900       -0.4053410673220567        0.0000000000000000        0.2314283515440728
N        0.7093751755242951       -0.7205687582313601        0.0000000000000000        0.1229317230114044
O        0.0015907681675544        0.0829125292559215       -0.1852120237345000       -0.3543600596543159
O        0.0015907681675544        0.0829125292559215        0.1852120237345000       -0.3543600596543159
N       -0.9154405464855077       -0.5740076321879918        0.0000000000000000        0.2314283515440728
N       -0.6809174417157768       -0.8655082458811124        0.0000000000000000        0.1229317230114044

        RMSE         1.153014768E+00 kcal/mol
         MAE         8.327627249E-01 kcal/mol
     max. AE         6.830216911E+00 kcal/mol

Coordinates in bohr
s                   x[bohr]                   y[bohr]                   z[bohr]                      q[e]
+        1.7213184364700942       -0.7659836046394508        0.0000000000000000        0.2314283515440728
+        1.3405248019394929       -1.3616776076185066        0.0000000000000000        0.1229317230114044
-        0.0030061161657743        0.1566819726627013       -0.3500000000000000       -0.3543600596543159
-        0.0030061161657743        0.1566819726627013        0.3500000000000000       -0.3543600596543159
+       -1.7299319169970553       -1.0847172187578358        0.0000000000000000        0.2314283515440728
+       -1.2867474788902116       -1.6355735440407158        0.0000000000000000        0.1229317230114044
