6
s                      x[A]                      y[A]                      z[A]                      q[e]
N        0.0000000000000000        0.9270130315227730       -0.4537532692470346        0.1979110689179275
N        0.0000000000000000        0.5667959772680417       -0.9229936010234695        0.1054997195048966
O       -0.2910474658684998        0.0045650239228300        0.1393214607719185       -0.3034107735216629
O        0.2910474658684998        0.0045650239228300        0.1393214607719185       -0.3034107735216629
N        0.0000000000000000       -0.9270130315227730       -0.4537532692470346        0.1979110689179275
N        0.0000000000000000       -0.5667959772680417       -0.9229936010234695        0.1054997195048966

        RMSE         1.053699263E+00 kcal/mol
         MAE         7.286103065E-01 kcal/mol
     max. AE         5.378509321E+00 kcal/mol

Coordinates in bohr
s                   x[bohr]                   y[bohr]                   z[bohr]                      q[e]
+        0.0000000000000000        1.7518007443084453       -0.8574694074080215        0.1979110689179275
+        0.0000000000000000        1.0710891660478197       -1.7442051214844496        0.1054997195048966
-       -0.5499999999999997        0.0086266449703119        0.2632794042576424       -0.3034107735216629
-        0.5499999999999997        0.0086266449703119        0.2632794042576424       -0.3034107735216629
+        0.0000000000000000       -1.7518007443084453       -0.8574694074080215        0.1979110689179275
+        0.0000000000000000       -1.0710891660478197       -1.7442051214844496        0.1054997195048966
