3
s                      x[A]                      y[A]                      z[A]                      q[e]
N        0.0000000000000000        0.6924574849082819       -0.5307705632513274        0.3379860774420776
O        0.0000000000000000        0.0000000000000000        0.1326927731071345       -0.6759721250818329
N        0.0000000000000000       -0.6924574849082819       -0.5307705632513274        0.3379860774420776

        RMSE         2.157201018E+00 kcal/mol
         MAE         1.681092326E+00 kcal/mol
     max. AE         8.554433036E+00 kcal/mol

Coordinates in bohr
s                   x[bohr]                   y[bohr]                   z[bohr]                      q[e]
+        0.0000000000000000        1.3085549999999999       -1.0030110000000001        0.3379860774420776
-        0.0000000000000000        0.0000000000000000        0.2507530000000000       -0.6759721250818329
+        0.0000000000000000       -1.3085549999999999       -1.0030110000000001        0.3379860774420776
