6
s                      x[A]                      y[A]                      z[A]                      q[e]
N        0.8539420636049004       -0.5665071320569902        0.0000000000000000        0.2314283515440728
N        0.6080237594508182       -0.8484608199851328       -0.0000000000000000        0.1229317230114044
O       -0.0058191291040372        0.0887060834677773       -0.1852120237345000       -0.3543600596543159
O       -0.0058191291040372        0.0887060834677773        0.1852120237345000       -0.3543600596543159
N       -0.8526685666469014       -0.4880143084985353        0.0000000000000000        0.2314283515440728
N       -0.6207305029266604       -0.7815759358478972        0.0000000000000000        0.1229317230114044

        RMSE         1.354288099E+00 kcal/mol
         MAE         1.011332047E+00 kcal/mol
     max. AE         6.689671654E+00 kcal/mol

Coordinates in bohr
s                   x[bohr]                   y[bohr]                   z[bohr]                      q[e]
+        1.6137166272215508       -1.0705433277062824        0.0000000000000000        0.2314283515440728
+        1.1489983831332973       -1.6033585779532769       -0.0000000000000000        0.1229317230114044
-       -0.0109965602953112        0.1676302034161015       -0.3500000000000000       -0.3543600596543159
-       -0.0109965602953112        0.1676302034161015        0.3500000000000000       -0.3543600596543159
+       -1.6113100667493290       -0.9222133883669185        0.0000000000000000        0.2314283515440728
+       -1.1730106482490872       -1.4769644650009228        0.0000000000000000        0.1229317230114044
