6
s                      x[A]                      y[A]                      z[A]                      q[e]
N        0.2881855848102290       -0.3870935161609612        0.0765010778448973        0.5225510325000000
N        1.2545671551396076       -0.2860887262041108       -0.2182064356585465        0.0948963128000000
O        0.1051980068844568       -0.1808379437911881       -0.4143250776813142       -0.6174473453000000
O        0.1051980068844568       -0.1808379437911881        0.4143250776813142       -0.6174473453000000
N       -0.2827782551485531       -0.4879970469483066        0.0765010778448973        0.5225510325000000
N       -1.2524466736374948       -0.5499523958026038       -0.2182064356585465        0.0948963128000000

        RMSE         5.456410802E+00 kcal/mol
         MAE         4.263374425E+00 kcal/mol
     max. AE         2.143243539E+01 kcal/mol

Coordinates in bohr
s                   x[bohr]                   y[bohr]                   z[bohr]                      q[e]
+        0.5445918285962323       -0.7315007304847004        0.1445660854291854        0.5225510325000000
+        2.3707883292086205       -0.5406293401068597       -0.4123504022069879        0.0948963128000000
-        0.1987954219556504       -0.3417341868562824       -0.7829609237267234       -0.6174473453000000
-        0.1987954219556504       -0.3417341868562824        0.7829609237267234       -0.6174473453000000
+       -0.5343734564656004       -0.9221807687644854        0.1445660854291854        0.5225510325000000
+       -2.3667811999155282       -1.0392594101063044       -0.4123504022069879        0.0948963128000000
