6
s                      x[A]                      y[A]                      z[A]                      q[e]
N        0.8875508404048151       -0.5958405656102447        0.0000000000000000        0.2314283515440728
N        0.6419805158314351       -0.8780973815478316       -0.0000000000000000        0.1229317230114044
O       -0.0057578659966320        0.0961021324768450       -0.1852120237345000       -0.3543600596543159
O       -0.0057578659966320        0.0961021324768450        0.1852120237345000       -0.3543600596543159
N       -0.8863420170809468       -0.5179038398387737       -0.0000000000000000        0.2314283515440728
N       -0.6540419657711397       -0.8111791040799999        0.0000000000000000        0.1229317230114044

        RMSE         1.724458854E+00 kcal/mol
         MAE         1.335666390E+00 kcal/mol
     max. AE         7.906805862E+00 kcal/mol

Coordinates in bohr
s                   x[bohr]                   y[bohr]                   z[bohr]                      q[e]
+        1.6772280107850306       -1.1259754834412485        0.0000000000000000        0.2314283515440728
+        1.2131673528015559       -1.6593635626070480       -0.0000000000000000        0.1229317230114044
-       -0.0108807898007208        0.1816067104537033       -0.3500000000000000       -0.3543600596543159
-       -0.0108807898007208        0.1816067104537033        0.3500000000000000       -0.3543600596543159
+       -1.6749436657688539       -0.9786964166182576       -0.0000000000000000        0.2314283515440728
+       -1.2359601898635173       -1.5329063454054506        0.0000000000000000        0.1229317230114044
