6
s                      x[A]                      y[A]                      z[A]                      q[e]
N        0.0000000000000000        0.9371404890713536       -0.4396383865319107        0.1979110689179275
N        0.0000000000000000        0.5851674828715109       -0.9150937661925687        0.1054997195048966
O       -0.2910474658684998        0.0044823624848938        0.1372477214376234       -0.3034107735216629
O        0.2910474658684998        0.0044823624848938        0.1372477214376234       -0.3034107735216629
N       -0.0000000000000000       -0.9371404890713536       -0.4396383865319107        0.1979110689179275
N        0.0000000000000000       -0.5851674828715109       -0.9150937661925687        0.1054997195048966

        RMSE         9.676414458E-01 kcal/mol
         MAE         6.584234958E-01 kcal/mol
     max. AE         5.001684681E+00 kcal/mol

Coordinates in bohr
s                   x[bohr]                   y[bohr]                   z[bohr]                      q[e]
+        0.0000000000000000        1.7709388654224631       -0.8307961447834786        0.1979110689179275
+        0.0000000000000000        1.1058062801506903       -1.7292765972176944        0.1054997195048966
-       -0.5499999999999997        0.0084704374914759        0.2593606048602353       -0.3034107735216629
-        0.5499999999999997        0.0084704374914759        0.2593606048602353       -0.3034107735216629
+       -0.0000000000000000       -1.7709388654224631       -0.8307961447834786        0.1979110689179275
+        0.0000000000000000       -1.1058062801506903       -1.7292765972176944        0.1054997195048966
