6
s                      x[A]                      y[A]                      z[A]                      q[e]
N        0.8750569433852701       -0.4607973233132820        0.0000000000000000        0.2314283515440728
N        0.6540360250372632       -0.7626639297918786        0.0000000000000000        0.1229317230114044
O       -0.0015699463177081        0.0839300077858058       -0.1852120237345000       -0.3543600596543159
O       -0.0015699463177081        0.0839300077858058        0.1852120237345000       -0.3543600596543159
N       -0.8768332394324584       -0.5422804039685313        0.0000000000000000        0.2314283515440728
N       -0.6403942458312619       -0.8322291869615859        0.0000000000000000        0.1229317230114044

        RMSE         1.142608247E+00 kcal/mol
         MAE         8.343293460E-01 kcal/mol
     max. AE         6.231710022E+00 kcal/mol

Coordinates in bohr
s                   x[bohr]                   y[bohr]                   z[bohr]                      q[e]
+        1.6536179671784166       -0.8707807404061466        0.0000000000000000        0.2314283515440728
+        1.2359489635035066       -1.4412259530720477        0.0000000000000000        0.1229317230114044
-       -0.0029667685721392        0.1586047284227162       -0.3500000000000000       -0.3543600596543159
-       -0.0029667685721392        0.1586047284227162        0.3500000000000000       -0.3543600596543159
+       -1.6569746802253358       -1.0247614467031585        0.0000000000000000        0.2314283515440728
+       -1.2101697369401985       -1.5726852369698361        0.0000000000000000        0.1229317230114044
