6
s                      x[A]                      y[A]                      z[A]                      q[e]
N        0.9747764101758593       -0.4573231610249913        0.0000000000000000        0.1979110689179275
N        0.6254715311554544       -0.9347421768110773        0.0000000000000000        0.1054997195048966
O        0.0044555481716750        0.1505720299858371       -0.2910474658684998       -0.3034107735216629
O        0.0044555481716750        0.1505720299858371        0.2910474658684998       -0.3034107735216629
N       -0.9786834337070675       -0.5394002345905701        0.0000000000000000        0.1979110689179275
N       -0.6077453850639493       -1.0002123212489502        0.0000000000000000        0.1054997195048966

        RMSE         1.620592906E+00 kcal/mol
         MAE         1.206676085E+00 kcal/mol
     max. AE         7.716853894E+00 kcal/mol

Coordinates in bohr
s                   x[bohr]                   y[bohr]                   z[bohr]                      q[e]
+        1.8420604487893171       -0.8642155251658832        0.0000000000000000        0.1979110689179275
+        1.1819698931545721       -1.7664067120872133        0.0000000000000000        0.1054997195048966
-        0.0084197657832501        0.2845398988274558       -0.5499999999999997       -0.3034107735216629
-        0.0084197657832501        0.2845398988274558        0.5499999999999997       -0.3034107735216629
+       -1.8494436532290197       -1.0193187153838816        0.0000000000000000        0.1979110689179275
+       -1.1484723317817727       -1.8901273544689594        0.0000000000000000        0.1054997195048966
