3
s                      x[A]                      y[A]                      z[A]                      q[e]
N        0.6957346793739612       -0.4605042965097221        0.0000000000000000        0.3613484133133580
O        0.0000000000000000        0.1245032265948056        0.0000000000000000       -0.7226967968243936
N       -0.6957346793739612       -0.5355225746031440        0.0000000000000000        0.3613484133133580

        RMSE         1.991880980E+00 kcal/mol
         MAE         1.523103720E+00 kcal/mol
     max. AE         8.835739476E+00 kcal/mol

Coordinates in bohr
s                   x[bohr]                   y[bohr]                   z[bohr]                      q[e]
+        1.3147480000000000       -0.8702270000000000        0.0000000000000000        0.3613484133133580
-        0.0000000000000000        0.2352770000000000        0.0000000000000000       -0.7226967968243936
+       -1.3147480000000000       -1.0119910000000001        0.0000000000000000        0.3613484133133580
