3
s                      x[A]                      y[A]                      z[A]                      q[e]
N        0.6978402754952171       -0.5191424232240648        0.0000000000000000        0.3379860774420776
O        0.0000000000000000        0.1386566002713854        0.0000000000000000       -0.6759721250818329
N       -0.6978402754952171       -0.5901093205925972        0.0000000000000000        0.3379860774420776

        RMSE         2.315003735E+00 kcal/mol
         MAE         1.817602040E+00 kcal/mol
     max. AE         9.170747505E+00 kcal/mol

Coordinates in bohr
s                   x[bohr]                   y[bohr]                   z[bohr]                      q[e]
+        1.3187270000000000       -0.9810370000000000        0.0000000000000000        0.3379860774420776
-        0.0000000000000000        0.2620230000000000        0.0000000000000000       -0.6759721250818329
+       -1.3187270000000000       -1.1151450000000001        0.0000000000000000        0.3379860774420776
