3
s                      x[A]                      y[A]                      z[A]                      q[e]
N        0.0000000000000000        0.7039311051900288       -0.5210215314991540        0.3379860774420776
O        0.0000000000000000        0.0000000000000000        0.1302553828747885       -0.6759721250818329
N        0.0000000000000000       -0.7039311051900288       -0.5210215314991540        0.3379860774420776

        RMSE         2.152786746E+00 kcal/mol
         MAE         1.673792948E+00 kcal/mol
     max. AE         8.829965040E+00 kcal/mol

Coordinates in bohr
s                   x[bohr]                   y[bohr]                   z[bohr]                      q[e]
+        0.0000000000000000        1.3302369999999999       -0.9845880000000000        0.3379860774420776
-        0.0000000000000000        0.0000000000000000        0.2461470000000000       -0.6759721250818329
+        0.0000000000000000       -1.3302369999999999       -0.9845880000000000        0.3379860774420776
