3
s                      x[A]                      y[A]                      z[A]                      q[e]
N        0.8168104251752571       -0.4828832007489564        0.0000000000000000        0.3379860774420776
O        0.0000000000000000        0.1094867648876230        0.0000000000000000       -0.6759721250818329
N       -0.8168104251752571       -0.3930088016431849        0.0000000000000000        0.3379860774420776

        RMSE         2.421130083E+00 kcal/mol
         MAE         1.825825429E+00 kcal/mol
     max. AE         1.060721984E+01 kcal/mol

Coordinates in bohr
s                   x[bohr]                   y[bohr]                   z[bohr]                      q[e]
+        1.5435479999999999       -0.9125170000000000        0.0000000000000000        0.3379860774420776
-        0.0000000000000000        0.2069000000000000        0.0000000000000000       -0.6759721250818329
+       -1.5435479999999999       -0.7426790000000000        0.0000000000000000        0.3379860774420776
