6
s                      x[A]                      y[A]                      z[A]                      q[e]
N        0.0000000000000000        0.9163948692296643       -0.4888270734633071        0.2314283515440728
N        0.0000000000000000        0.6980571356125893       -0.7926400562886948        0.1229317230114044
O       -0.1852120237345000       -0.0011270911707760        0.0827035981037050       -0.3543600596543159
O        0.1852120237345000       -0.0011270911707760        0.0827035981037050       -0.3543600596543159
N       -0.0000000000000000       -0.9163948692296643       -0.4888270734633071        0.2314283515440728
N        0.0000000000000000       -0.6980571356125893       -0.7926400562886948        0.1229317230114044

        RMSE         1.105105125E+00 kcal/mol
         MAE         7.998307100E-01 kcal/mol
     max. AE         6.084410842E+00 kcal/mol

Coordinates in bohr
s                   x[bohr]                   y[bohr]                   z[bohr]                      q[e]
+        0.0000000000000000        1.7317353256188066       -0.9237492915547045        0.2314283515440728
+        0.0000000000000000        1.3191368062293680       -1.4978726224531100        0.1229317230114044
-       -0.3500000000000000       -0.0021298936311883        0.1562871500059358       -0.3543600596543159
-        0.3500000000000000       -0.0021298936311883        0.1562871500059358       -0.3543600596543159
+       -0.0000000000000000       -1.7317353256188066       -0.9237492915547045        0.2314283515440728
+        0.0000000000000000       -1.3191368062293680       -1.4978726224531100        0.1229317230114044
