6
s                      x[A]                      y[A]                      z[A]                      q[e]
N        0.0792262897746347       -0.0790910765892745       -0.4794682824999675        0.5225510325000000
N       -0.5199750463448671        1.3779572226605501       -0.5292742214974717        0.0948963128000000
O       -0.5692252585270176       -0.0837831686448146       -0.3411324384172338       -0.6174473453000000
O        0.5692252585270176       -0.0837831686448146       -0.3411324384172338       -0.6174473453000000
N        0.0792262897746347        0.0790910765892745       -0.4794682824999675        0.5225510325000000
N       -0.5199750463448671       -1.3779572226605501       -0.5292742214974717        0.0948963128000000

        RMSE         9.257602426E+00 kcal/mol
         MAE         7.726292603E+00 kcal/mol
     max. AE         4.053475355E+01 kcal/mol

Coordinates in bohr
s                   x[bohr]                   y[bohr]                   z[bohr]                      q[e]
+        0.1497159896102196       -0.1494604737213380       -0.9060637397685829        0.5225510325000000
+       -0.9826104296640403        2.6039617634249512       -1.0001833238951257        0.0948963128000000
-       -1.0756798423089915       -0.1583272426617452       -0.6446468811181805       -0.6174473453000000
-        1.0756798423089915       -0.1583272426617452       -0.6446468811181805       -0.6174473453000000
+        0.1497159896102196        0.1494604737213380       -0.9060637397685829        0.5225510325000000
+       -0.9826104296640403       -2.6039617634249512       -1.0001833238951257        0.0948963128000000
