6
s                      x[A]                      y[A]                      z[A]                      q[e]
N        0.9751775802132991       -0.4152155099053840        0.0000000000000000        0.2314283515440728
N        0.7890710531564538       -0.7397737558969775        0.0000000000000000        0.1229317230114044
O        0.0039935822388452        0.0594371840789616       -0.1852120237345000       -0.3543600596543159
O        0.0039935822388452        0.0594371840789616        0.1852120237345000       -0.3543600596543159
N       -0.9697800356470819       -0.3137159925442921        0.0000000000000000        0.2314283515440728
N       -0.8082658710549847       -0.6511872788642056        0.0000000000000000        0.1229317230114044

        RMSE         9.707136829E-01 kcal/mol
         MAE         7.527826115E-01 kcal/mol
     max. AE         5.028389664E+00 kcal/mol

Coordinates in bohr
s                   x[bohr]                   y[bohr]                   z[bohr]                      q[e]
+        1.8428185502898182       -0.7846435967634978        0.0000000000000000        0.2314283515440728
+        1.4911281839922734       -1.3979697934465805        0.0000000000000000        0.1229317230114044
-        0.0075467766909101        0.1123199995776598       -0.3500000000000000       -0.3543600596543159
-        0.0075467766909101        0.1123199995776598        0.3500000000000000       -0.3543600596543159
+       -1.8326186693097146       -0.5928373070848819        0.0000000000000000        0.2314283515440728
+       -1.5274011328485328       -1.2305656134354814        0.0000000000000000        0.1229317230114044
