3
s                      x[A]                      y[A]                      z[A]                      q[e]
N        0.0000000000000000        0.6452792198682087       -0.5121848012581757        0.3613484133133580
O        0.0000000000000000        0.0000000000000000        0.1280460680202412       -0.7226967968243936
N        0.0000000000000000       -0.6452792198682087       -0.5121848012581757        0.3613484133133580

        RMSE         1.877319097E+00 kcal/mol
         MAE         1.438235790E+00 kcal/mol
     max. AE         7.181839589E+00 kcal/mol

Coordinates in bohr
s                   x[bohr]                   y[bohr]                   z[bohr]                      q[e]
+        0.0000000000000000        1.2194010000000000       -0.9678890000000000        0.3613484133133580
-        0.0000000000000000        0.0000000000000000        0.2419720000000000       -0.7226967968243936
+        0.0000000000000000       -1.2194010000000000       -0.9678890000000000        0.3613484133133580
