6
s                      x[A]                      y[A]                      z[A]                      q[e]
N        0.0000000000000000        0.9853086096039263       -0.3903810960837278        0.2314283515440728
N        0.0000000000000000        0.8056238464531253       -0.7185381931359485        0.1229317230114044
O       -0.1852120237345000        0.0049734617780429        0.0650717130163157       -0.3543600596543159
O        0.1852120237345000        0.0049734617780429        0.0650717130163157       -0.3543600596543159
N        0.0000000000000000       -0.9853086096039263       -0.3903810960837278        0.2314283515440728
N        0.0000000000000000       -0.8056238464531253       -0.7185381931359485        0.1229317230114044

        RMSE         8.486832978E-01 kcal/mol
         MAE         6.056577596E-01 kcal/mol
     max. AE         5.436250555E+00 kcal/mol

Coordinates in bohr
s                   x[bohr]                   y[bohr]                   z[bohr]                      q[e]
+        0.0000000000000000        1.8619634212070675       -0.7377133561542830        0.2314283515440728
+        0.0000000000000000        1.5224084299342968       -1.3578403957082645        0.1229317230114044
-       -0.3500000000000000        0.0093984806559335        0.1229677161152260       -0.3543600596543159
-        0.3500000000000000        0.0093984806559335        0.1229677161152260       -0.3543600596543159
+        0.0000000000000000       -1.8619634212070675       -0.7377133561542830        0.2314283515440728
+        0.0000000000000000       -1.5224084299342968       -1.3578403957082645        0.1229317230114044
