6
s                      x[A]                      y[A]                      z[A]                      q[e]
N        0.0846496082280281        0.3378696069197437       -0.3822869893186037        0.5225510325000000
N       -0.1803413813628295        1.1979333337689864       -0.3806146747391875        0.0948963128000000
O       -0.3715466029952615        0.1308504832965950       -0.1955974903433676       -0.6174473453000000
O        0.3715466029952615        0.1308504832965950       -0.1955974903433676       -0.6174473453000000
N        0.0846496082280281       -0.3378696069197437       -0.3822869893186037        0.5225510325000000
N       -0.1803413813628295       -1.1979333337689864       -0.3806146747391875        0.0948963128000000

        RMSE         6.602487928E+00 kcal/mol
         MAE         5.227279544E+00 kcal/mol
     max. AE         2.273741818E+01 kcal/mol

Coordinates in bohr
s                   x[bohr]                   y[bohr]                   z[bohr]                      q[e]
+        0.1599645761782747        0.6384810231944066       -0.7224177111379830        0.5225510325000000
+       -0.3407958198624924        2.2637659173800460       -0.7192574945872764        0.0948963128000000
-       -0.7021213225052534        0.2472715768143587       -0.3696256875758470       -0.6174473453000000
-        0.7021213225052534        0.2472715768143587       -0.3696256875758470       -0.6174473453000000
+        0.1599645761782747       -0.6384810231944066       -0.7224177111379830        0.5225510325000000
+       -0.3407958198624924       -2.2637659173800460       -0.7192574945872764        0.0948963128000000
