6
s                      x[A]                      y[A]                      z[A]                      q[e]
N        0.9991923005672237       -0.3759498720963665        0.0000000000000000        0.2314283515440728
N        0.8288531238494450       -0.7090538488504866        0.0000000000000000        0.1229317230114044
O        0.0063775363860015        0.0516164067626322       -0.1852120237345000       -0.3543600596543159
O        0.0063775363860015        0.0516164067626322        0.1852120237345000       -0.3543600596543159
N       -0.9922221288672667       -0.2660697423228909        0.0000000000000000        0.2314283515440728
N       -0.8501194541245458       -0.6121629729490684        0.0000000000000000        0.1229317230114044

        RMSE         1.243121969E+00 kcal/mol
         MAE         1.013830527E+00 kcal/mol
     max. AE         5.200261411E+00 kcal/mol

Coordinates in bohr
s                   x[bohr]                   y[bohr]                   z[bohr]                      q[e]
+        1.8881997947381934       -0.7104422951630327        0.0000000000000000        0.2314283515440728
+        1.5663054023056291       -1.3399175825291907        0.0000000000000000        0.1229317230114044
-        0.0120517971246849        0.0975408723616042       -0.3500000000000000       -0.3543600596543159
-        0.0120517971246849        0.0975408723616042        0.3500000000000000       -0.3543600596543159
+       -1.8750280791778577       -0.5027989432613993        0.0000000000000000        0.2314283515440728
+       -1.6064929422191019       -1.1568203630197884        0.0000000000000000        0.1229317230114044
