6
s                      x[A]                      y[A]                      z[A]                      q[e]
N        0.0000000000000000        0.4722243763254300       -0.1515588926700055        0.5225510325000000
N       -0.0000000000000000        0.8965900488245335       -0.8233720613205566        0.0948963129000000
O       -0.3455139784000000        0.0023190986386906        0.1461620428715170       -0.6174473453000000
O        0.3455139784000000        0.0023190986386906        0.1461620428715170       -0.6174473453000000
N        0.0000000000000000       -0.4722243763254300       -0.1515588926700055        0.5225510325000000
N        0.0000000000000000       -0.8965900488245335       -0.8233720613205566        0.0948963129000000

        RMSE         1.141536952E+00 kcal/mol
         MAE         8.789304749E-01 kcal/mol
     max. AE         4.475029536E+00 kcal/mol

Coordinates in bohr
s                   x[bohr]                   y[bohr]                   z[bohr]                      q[e]
+        0.0000000000000000        0.8923747410201942       -0.2864047990239683        0.5225510325000000
+       -0.0000000000000000        1.6943096390892307       -1.5559476952495208        0.0948963129000000
-       -0.6529267916933517        0.0043824612850474        0.2762062309645929       -0.6174473453000000
-        0.6529267916933517        0.0043824612850474        0.2762062309645929       -0.6174473453000000
+        0.0000000000000000       -0.8923747410201942       -0.2864047990239683        0.5225510325000000
+        0.0000000000000000       -1.6943096390892307       -1.5559476952495208        0.0948963129000000
