6
s                      x[A]                      y[A]                      z[A]                      q[e]
N        0.0000000000000000        0.4770320938819561       -0.1455464806923693        0.5225510325000000
N        0.0000000000000000        0.9130578888772563       -0.8098511274220356        0.0948963129000000
O       -0.3455139784000000        0.0020025781006508        0.1439279998043129       -0.6174473453000000
O        0.3455139784000000        0.0020025781006508        0.1439279998043129       -0.6174473453000000
N       -0.0000000000000000       -0.4770320938819561       -0.1455464806923693        0.5225510325000000
N        0.0000000000000000       -0.9130578888772563       -0.8098511274220356        0.0948963129000000

        RMSE         8.009263502E-01 kcal/mol
         MAE         5.432806017E-01 kcal/mol
     max. AE         5.836587646E+00 kcal/mol

Coordinates in bohr
s                   x[bohr]                   y[bohr]                   z[bohr]                      q[e]
+        0.0000000000000000        0.9014600104905839       -0.2750429870328137        0.5225510325000000
+        0.0000000000000000        1.7254293466667217       -1.5303968332208973        0.0948963129000000
-       -0.6529267916933517        0.0037843241550696        0.2719845014150993       -0.6174473453000000
-        0.6529267916933517        0.0037843241550696        0.2719845014150993       -0.6174473453000000
+       -0.0000000000000000       -0.9014600104905839       -0.2750429870328137        0.5225510325000000
+        0.0000000000000000       -1.7254293466667217       -1.5303968332208973        0.0948963129000000
