6
s                      x[A]                      y[A]                      z[A]                      q[e]
N        0.4746094636324856       -0.1416295476890678        0.0000000000000000        0.5225510325000000
N        0.9047322785975069       -0.8097713901255943        0.0000000000000000        0.0948963129000000
O        0.0021633446239806        0.1520424685605515       -0.3455139784000000       -0.6174473453000000
O        0.0021633446239806        0.1520424685605515        0.3455139784000000       -0.6174473453000000
N       -0.4935477178975248       -0.2026946828038163        0.0000000000000000        0.5225510325000000
N       -0.8882975889324483       -0.8923262488489196        0.0000000000000000        0.0948963129000000

        RMSE         1.283194536E+00 kcal/mol
         MAE         9.348150615E-01 kcal/mol
     max. AE         6.404060261E+00 kcal/mol

Coordinates in bohr
s                   x[bohr]                   y[bohr]                   z[bohr]                      q[e]
+        0.8968819028158350       -0.2676410564048067        0.0000000000000000        0.5225510325000000
+        1.7096962234106992       -1.5302461515686387        0.0000000000000000        0.0948963129000000
-        0.0040881288543049        0.2873186250179746       -0.6529267916933517       -0.6174473453000000
-        0.0040881288543049        0.2873186250179746        0.6529267916933517       -0.6174473453000000
+       -0.9326700166710428       -0.3830374375857593        0.0000000000000000        0.5225510325000000
+       -1.6786391609868461       -1.6862522248815868        0.0000000000000000        0.0948963129000000
