6
s                      x[A]                      y[A]                      z[A]                      q[e]
N        1.0687698359590090       -0.2936801579884610        0.0000000000000000        0.1979110689179275
N        0.8128454410225543       -0.8270144989210738        0.0000000000000000        0.1054997195048966
O        0.0035006055563677        0.1261526365590830       -0.2910474658684998       -0.3034107735216629
O        0.0035006055563677        0.1261526365590830        0.2910474658684998       -0.3034107735216629
N       -1.0778363582821093       -0.3946978693772138        0.0000000000000000        0.1979110689179275
N       -0.7875299709482956       -0.9101248929361311        0.0000000000000000        0.1054997195048966

        RMSE         7.691789318E-01 kcal/mol
         MAE         5.151942878E-01 kcal/mol
     max. AE         5.138442008E+00 kcal/mol

Coordinates in bohr
s                   x[bohr]                   y[bohr]                   z[bohr]                      q[e]
+        2.0196822811130168       -0.5549750670793773        0.0000000000000000        0.1979110689179275
+        1.5360552658596112       -1.5628309047435680        0.0000000000000000        0.1054997195048966
-        0.0066151857747909        0.2383939331010856       -0.5499999999999997       -0.3034107735216629
-        0.0066151857747909        0.2383939331010856        0.5499999999999997       -0.3034107735216629
+       -2.0368155252140259       -0.7458708754246622        0.0000000000000000        0.1979110689179275
+       -1.4882159606820387       -1.7198867876109156        0.0000000000000000        0.1054997195048966
