6
s                      x[A]                      y[A]                      z[A]                      q[e]
N        1.0656852127775109       -0.1658472173547133        0.0000000000000000        0.1979110689179275
N        0.8727244066401064       -0.7250510642982207        0.0000000000000000        0.1054997195048966
O        0.0028414921223150        0.1043588395101001       -0.2910474658684998       -0.3034107735216629
O        0.0028414921223150        0.1043588395101001        0.2910474658684998       -0.3034107735216629
N       -1.0802427277322975       -0.2849313143541895        0.0000000000000000        0.1979110689179275
N       -0.8397624141741872       -0.8254052119039305        0.0000000000000000        0.1054997195048966

        RMSE         1.266757345E+00 kcal/mol
         MAE         1.042345320E+00 kcal/mol
     max. AE         4.418765776E+00 kcal/mol

Coordinates in bohr
s                   x[bohr]                   y[bohr]                   z[bohr]                      q[e]
+        2.0138531880997470       -0.3134058194696846        0.0000000000000000        0.1979110689179275
+        1.6492101115524904       -1.3701479384953514        0.0000000000000000        0.1054997195048966
-        0.0053696418988213        0.1972096254446967       -0.5499999999999997       -0.3034107735216629
-        0.0053696418988213        0.1972096254446967        0.5499999999999997       -0.3034107735216629
+       -2.0413629044315500       -0.5384421486961490        0.0000000000000000        0.1979110689179275
+       -1.5869209732424987       -1.5597897930239122        0.0000000000000000        0.1054997195048966
