6
s                      x[A]                      y[A]                      z[A]                      q[e]
N        0.5661120041473240       -0.0813209345184604        0.0000000000000000        0.5225510325000000
N        1.1324361039003599       -0.6387222007592392        0.0000000000000000        0.0948963129000000
O       -0.0018711984252733        0.1276544664417902       -0.3455139784000000       -0.6174473453000000
O       -0.0018711984252733        0.1276544664417902        0.3455139784000000       -0.6174473453000000
N       -0.5904810347971882       -0.1530741167780166        0.0000000000000000        0.5225510325000000
N       -1.1128851754643130       -0.7518337274580899        0.0000000000000000        0.0948963129000000

        RMSE         9.872362127E-01 kcal/mol
         MAE         7.613392592E-01 kcal/mol
     max. AE         3.649626752E+00 kcal/mol

Coordinates in bohr
s                   x[bohr]                   y[bohr]                   z[bohr]                      q[e]
+        1.0697966441724884       -0.1536742945061799        0.0000000000000000        0.5225510325000000
+        2.1399940909521855       -1.2070100296846542        0.0000000000000000        0.0948963129000000
-       -0.0035360525501546        0.2412319802664305       -0.6529267916933517       -0.6174473453000000
-       -0.0035360525501546        0.2412319802664305        0.6529267916933517       -0.6174473453000000
+       -1.1158474380436194       -0.2892681576068004        0.0000000000000000        0.5225510325000000
+       -2.1030481907096314       -1.4207598367778929        0.0000000000000000        0.0948963129000000
