6
s                      x[A]                      y[A]                      z[A]                      q[e]
N        1.1038586033272462       -0.3555645576422582        0.0000000000000000        0.1979110689179275
N        0.8415394557221366       -0.8857828899746509        0.0000000000000000        0.1054997195048966
O        0.0035669181743831        0.1068491500136002       -0.2910474658684998       -0.3034107735216629
O        0.0035669181743831        0.1068491500136002        0.2910474658684998       -0.3034107735216629
N       -1.0755761150328800       -0.1192736974306576        0.0000000000000000        0.1979110689179275
N       -0.9055783545500142       -0.6858807716650207        0.0000000000000000        0.1054997195048966

        RMSE         1.162606661E+00 kcal/mol
         MAE         9.416003135E-01 kcal/mol
     max. AE         4.268249760E+00 kcal/mol

Coordinates in bohr
s                   x[bohr]                   y[bohr]                   z[bohr]                      q[e]
+        2.0859904415188866       -0.6719196338634312        0.0000000000000000        0.1979110689179275
+        1.5902790950816827       -1.6738870686686349        0.0000000000000000        0.1054997195048966
-        0.0067404984615020        0.2019156302636629       -0.5499999999999997       -0.3034107735216629
-        0.0067404984615020        0.2019156302636629        0.5499999999999997       -0.3034107735216629
+       -2.0325442844960677       -0.2253946221146660        0.0000000000000000        0.1979110689179275
+       -1.7112950752422738       -1.2961268131645649        0.0000000000000000        0.1054997195048966
