6
s                      x[A]                      y[A]                      z[A]                      q[e]
N        0.0000000000000000        0.9942170004901103       -0.5129943180916549        0.1979110689179275
N        0.0000000000000000        0.6339996652667477       -0.9822344341795641        0.1054997195048966
O       -0.2910474658684998        0.0045650267350660        0.1541320698107341       -0.3034107735216629
O        0.2910474658684998        0.0045650267350660        0.1541320698107341       -0.3034107735216629
N       -0.0000000000000000       -0.9942170004901103       -0.5129943180916549        0.1979110689179275
N        0.0000000000000000       -0.6339996652667477       -0.9822344341795641        0.1054997195048966

        RMSE         1.810323304E+00 kcal/mol
         MAE         1.373565256E+00 kcal/mol
     max. AE         8.257168470E+00 kcal/mol

Coordinates in bohr
s                   x[bohr]                   y[bohr]                   z[bohr]                      q[e]
+        0.0000000000000000        1.8787978402004797       -0.9694187651092236        0.1979110689179275
+        0.0000000000000000        1.1980857309860911       -1.8561540715934099        0.1054997195048966
-       -0.5499999999999997        0.0086266502846676        0.2912673990922340       -0.3034107735216629
-        0.5499999999999997        0.0086266502846676        0.2912673990922340       -0.3034107735216629
+       -0.0000000000000000       -1.8787978402004797       -0.9694187651092236        0.1979110689179275
+        0.0000000000000000       -1.1980857309860911       -1.8561540715934099        0.1054997195048966
