3
s                      x[A]                      y[A]                      z[A]                      q[e]
N        0.0000000000000000        0.7555856802551596       -0.4042744552811385        0.3613484133133580
O        0.0000000000000000        0.0000000000000000        0.1010686138202846       -0.7226967968243936
N        0.0000000000000000       -0.7555856802551596       -0.4042744552811385        0.3613484133133580

        RMSE         2.266462538E+00 kcal/mol
         MAE         1.721281668E+00 kcal/mol
     max. AE         9.530261514E+00 kcal/mol

Coordinates in bohr
s                   x[bohr]                   y[bohr]                   z[bohr]                      q[e]
+        0.0000000000000000        1.4278500000000001       -0.7639680000000000        0.3613484133133580
-        0.0000000000000000        0.0000000000000000        0.1909920000000000       -0.7226967968243936
+        0.0000000000000000       -1.4278500000000001       -0.7639680000000000        0.3613484133133580
