3
s                      x[A]                      y[A]                      z[A]                      q[e]
N        0.0000000000000000        0.8239569634053555       -0.3925515925331661        0.3379860774420776
O        0.0000000000000000        0.0000000000000000        0.0981380304275942       -0.6759721250818329
N        0.0000000000000000       -0.8239569634053555       -0.3925515925331661        0.3379860774420776

        RMSE         2.546913885E+00 kcal/mol
         MAE         1.942211471E+00 kcal/mol
     max. AE         1.029887680E+01 kcal/mol

Coordinates in bohr
s                   x[bohr]                   y[bohr]                   z[bohr]                      q[e]
+        0.0000000000000000        1.5570530000000000       -0.7418150000000000        0.3379860774420776
-        0.0000000000000000        0.0000000000000000        0.1854540000000000       -0.6759721250818329
+        0.0000000000000000       -1.5570530000000000       -0.7418150000000000        0.3379860774420776
