6
s                      x[A]                      y[A]                      z[A]                      q[e]
N        0.0734782024406040        0.0957276292114340       -0.4626357683256094        0.5225510325000000
N       -0.3554826514471973        1.3074429588268974       -0.4054901757920557        0.0948963128000000
O       -0.4947739512989252        0.0145146418014565       -0.2585578577353588       -0.6174473453000000
O        0.4947739512989252        0.0145146418014565       -0.2585578577353588       -0.6174473453000000
N        0.0734782024406040       -0.0957276292114340       -0.4626357683256094        0.5225510325000000
N       -0.3554826514471973       -1.3074429588268974       -0.4054901757920557        0.0948963128000000

        RMSE         5.408039794E+00 kcal/mol
         MAE         4.417151566E+00 kcal/mol
     max. AE         2.124659526E+01 kcal/mol

Coordinates in bohr
s                   x[bohr]                   y[bohr]                   z[bohr]                      q[e]
+        0.1388536788036885        0.1808990018489868       -0.8742548979761592        0.5225510325000000
+       -0.6717648535867878        2.4707091168410718       -0.7662653788107351        0.0948963128000000
-       -0.9349872619655780        0.0274286978138746       -0.4886035387049160       -0.6174473453000000
-        0.9349872619655780        0.0274286978138746       -0.4886035387049160       -0.6174473453000000
+        0.1388536788036885       -0.1808990018489868       -0.8742548979761592        0.5225510325000000
+       -0.6717648535867878       -2.4707091168410718       -0.7662653788107351        0.0948963128000000
