6
s                      x[A]                      y[A]                      z[A]                      q[e]
N        0.4979730540350225       -0.1085904318762082        0.0000000000000000        0.5225510325000000
N        0.9878137169464890       -0.7342702881336757        0.0000000000000000        0.0948963129000000
O        0.0004835999086786        0.1403131885592698       -0.3455139784000000       -0.6174473453000000
O        0.0004835999086786        0.1403131885592698        0.3455139784000000       -0.6174473453000000
N       -0.5195441177526990       -0.1728410707100494        0.0000000000000000        0.5225510325000000
N       -0.9696412211156558       -0.8276935389135267        0.0000000000000000        0.0948963129000000

        RMSE         1.006455401E+00 kcal/mol
         MAE         7.657815636E-01 kcal/mol
     max. AE         4.103248693E+00 kcal/mol

Coordinates in bohr
s                   x[bohr]                   y[bohr]                   z[bohr]                      q[e]
+        0.9410326899840047       -0.2052061760912192        0.0000000000000000        0.5225510325000000
+        1.8666973879993844       -1.3875697466336541        0.0000000000000000        0.0948963129000000
-        0.0009138713816990        0.2651534981667426       -0.6529267916933517       -0.6174473453000000
-        0.0009138713816990        0.2651534981667426        0.6529267916933517       -0.6174473453000000
+       -0.9817960926452135       -0.3266222868728841        0.0000000000000000        0.5225510325000000
+       -1.8323563478630853       -1.5641141043575368        0.0000000000000000        0.0948963129000000
