6
s                      x[A]                      y[A]                      z[A]                      q[e]
N        1.0142548014113002       -0.5008605856877475        0.0000000000000000        0.1979110689179275
N        0.6687418841359158       -0.9810310128669609       -0.0000000000000000        0.1054997195048966
O        0.0044173888779856        0.1352980692552455       -0.2910474658684998       -0.3034107735216629
O        0.0044173888779856        0.1352980692552455        0.2910474658684998       -0.3034107735216629
N       -1.0016545113815438       -0.3192390647691049        0.0000000000000000        0.1979110689179275
N       -0.7122755287724193       -0.8351873369492943        0.0000000000000000        0.1054997195048966

        RMSE         9.329530696E-01 kcal/mol
         MAE         6.285603819E-01 kcal/mol
     max. AE         5.332660138E+00 kcal/mol

Coordinates in bohr
s                   x[bohr]                   y[bohr]                   z[bohr]                      q[e]
+        1.9166637960979751       -0.9464893339862457        0.0000000000000000        0.1979110689179275
+        1.2637390096395320       -1.8538799348990509       -0.0000000000000000        0.1054997195048966
-        0.0083476551690362        0.2556762961956399       -0.5499999999999997       -0.3034107735216629
-        0.0083476551690362        0.2556762961956399        0.5499999999999997       -0.3034107735216629
+       -1.8928526988403989       -0.6032744009609012        0.0000000000000000        0.1979110689179275
+       -1.3460056752455296       -1.5782753302846315        0.0000000000000000        0.1054997195048966
