6
s                      x[A]                      y[A]                      z[A]                      q[e]
N        0.1749583386147630       -0.4361655437548310        0.0732091573534890        0.5225510325000000
N        1.2840855645734843       -0.3482526738712680       -0.2935540683131913        0.0948963128000000
O        0.0525028549793424       -0.2209491369553423       -0.4625568298493385       -0.6174473453000000
O        0.0525028549793424       -0.2209491369553423        0.4625568298493385       -0.6174473453000000
N       -0.1725955170691396       -0.4781019055178035        0.0732091573534890        0.5225510325000000
N       -1.2851990961468707       -0.4758321307545611       -0.2935540683131913        0.0948963128000000

        RMSE         4.776999703E+00 kcal/mol
         MAE         3.736035517E+00 kcal/mol
     max. AE         1.787306767E+01 kcal/mol

Coordinates in bohr
s                   x[bohr]                   y[bohr]                   z[bohr]                      q[e]
+        0.3306233433470148       -0.8242334230580235        0.1383452572736412        0.5225510325000000
+        2.4265700386977782       -0.6581021760750799       -0.5547367921258695        0.0948963128000000
-        0.0992160167155871       -0.4175333565018701       -0.8741057258752464       -0.6174473453000000
-        0.0992160167155871       -0.4175333565018701        0.8741057258752464       -0.6174473453000000
+       -0.3261582577424555       -0.9034816614881633        0.1383452572736412        0.5225510325000000
+       -2.4286743084035285       -0.8991924088191594       -0.5547367921258695        0.0948963128000000
