3
s                      x[A]                      y[A]                      z[A]                      q[e]
N        0.0000000000000000        0.7037548891788756       -0.5784446673377983        0.3613484133133580
O        0.0000000000000000        0.0000000000000000        0.1446109022458442       -0.7226967968243936
N        0.0000000000000000       -0.7037548891788756       -0.5784446673377983        0.3613484133133580

        RMSE         2.367357014E+00 kcal/mol
         MAE         1.858667615E+00 kcal/mol
     max. AE         8.429080087E+00 kcal/mol

Coordinates in bohr
s                   x[bohr]                   y[bohr]                   z[bohr]                      q[e]
+        0.0000000000000000        1.3299040000000000       -1.0931020000000000        0.3613484133133580
-        0.0000000000000000        0.0000000000000000        0.2732750000000000       -0.7226967968243936
+        0.0000000000000000       -1.3299040000000000       -1.0931020000000000        0.3613484133133580
