3
s                      x[A]                      y[A]                      z[A]                      q[e]
N        0.7567070067645693       -0.3943825456820843        0.0000000000000000        0.3613484133133580
O        0.0000000000000000        0.1092793274210404        0.0000000000000000       -0.7226967968243936
N       -0.7567070067645693       -0.4798515445090280        0.0000000000000000        0.3613484133133580

        RMSE         2.172449278E+00 kcal/mol
         MAE         1.634608173E+00 kcal/mol
     max. AE         9.559603448E+00 kcal/mol

Coordinates in bohr
s                   x[bohr]                   y[bohr]                   z[bohr]                      q[e]
+        1.4299690000000000       -0.7452750000000000        0.0000000000000000        0.3613484133133580
-        0.0000000000000000        0.2065080000000000        0.0000000000000000       -0.7226967968243936
+       -1.4299690000000000       -0.9067880000000000        0.0000000000000000        0.3613484133133580
