6
s                      x[A]                      y[A]                      z[A]                      q[e]
N        0.9677121968650971       -0.3099500352862344        0.0000000000000000        0.2314283515440728
N        0.8045592496082520       -0.6466320963701376        0.0000000000000000        0.1229317230114044
O        0.0074401371155885        0.0683099132115450       -0.1852120237345000       -0.3543600596543159
O        0.0074401371155885        0.0683099132115450        0.1852120237345000       -0.3543600596543159
N       -0.9764546842340296       -0.5021408206013673        0.0000000000000000        0.2314283515440728
N       -0.7696747612326027       -0.8139352366800134        0.0000000000000000        0.1229317230114044

        RMSE         8.947955508E-01 kcal/mol
         MAE         6.269078078E-01 kcal/mol
     max. AE         6.287411270E+00 kcal/mol

Coordinates in bohr
s                   x[bohr]                   y[bohr]                   z[bohr]                      q[e]
+        1.8287110203401631       -0.5857206792669729        0.0000000000000000        0.2314283515440728
+        1.5203966334634598       -1.2219575660702131        0.0000000000000000        0.1229317230114044
-        0.0140598214843161        0.1290870276236135       -0.3500000000000000       -0.3543600596543159
-        0.0140598214843161        0.1290870276236135        0.3500000000000000       -0.3543600596543159
+       -1.8452319271227198       -0.9489086273492363        0.0000000000000000        0.2314283515440728
+       -1.4544745044067653       -1.5381146811849222        0.0000000000000000        0.1229317230114044
