6
s                      x[A]                      y[A]                      z[A]                      q[e]
N        0.0000000000000000        0.8826112817593886       -0.5288694305700300        0.2314283515440728
N       -0.0000000000000000        0.6486724869623660       -0.8208391802757429        0.1229317230114044
O       -0.1852120237345000       -0.0037417679840885        0.0898971964818181       -0.3543600596543159
O        0.1852120237345000       -0.0037417679840885        0.0898971964818181       -0.3543600596543159
N       -0.0000000000000000       -0.8826112817593886       -0.5288694305700300        0.2314283515440728
N        0.0000000000000000       -0.6486724869623660       -0.8208391802757429        0.1229317230114044

        RMSE         1.401381196E+00 kcal/mol
         MAE         1.061013404E+00 kcal/mol
     max. AE         6.566648463E+00 kcal/mol

Coordinates in bohr
s                   x[bohr]                   y[bohr]                   z[bohr]                      q[e]
+        0.0000000000000000        1.6678935977645371       -0.9994183799041906        0.2314283515440728
+       -0.0000000000000000        1.2258133454784854       -1.5511612437664593        0.1229317230114044
-       -0.3500000000000000       -0.0070709167149337        0.1698810807971072       -0.3543600596543159
-        0.3500000000000000       -0.0070709167149337        0.1698810807971072       -0.3543600596543159
+       -0.0000000000000000       -1.6678935977645371       -0.9994183799041906        0.2314283515440728
+        0.0000000000000000       -1.2258133454784854       -1.5511612437664593        0.1229317230114044
