6
s                      x[A]                      y[A]                      z[A]                      q[e]
N        0.0000000000000000        0.9476670105809283       -0.4474448705126473        0.2314283515440728
N        0.0000000000000000        0.7455289258127262       -0.7622684546681918        0.1229317230114044
O       -0.1852120237345000        0.0014906976981510        0.0752829423078487       -0.3543600596543159
O        0.1852120237345000        0.0014906976981510        0.0752829423078487       -0.3543600596543159
N        0.0000000000000000       -0.9476670105809283       -0.4474448705126473        0.2314283515440728
N        0.0000000000000000       -0.7455289258127262       -0.7622684546681918        0.1229317230114044

        RMSE         8.836815777E-01 kcal/mol
         MAE         5.916165361E-01 kcal/mol
     max. AE         5.822828369E+00 kcal/mol

Coordinates in bohr
s                   x[bohr]                   y[bohr]                   z[bohr]                      q[e]
+        0.0000000000000000        1.7908311081293002       -0.8455482615098446        0.2314283515440728
+        0.0000000000000000        1.4088454883928196       -1.4404786133988483        0.1229317230114044
-       -0.3500000000000000        0.0028170103853557        0.1422641428804761       -0.3543600596543159
-        0.3500000000000000        0.0028170103853557        0.1422641428804761       -0.3543600596543159
+        0.0000000000000000       -1.7908311081293002       -0.8455482615098446        0.2314283515440728
+        0.0000000000000000       -1.4088454883928196       -1.4404786133988483        0.1229317230114044
