6
s                      x[A]                      y[A]                      z[A]                      q[e]
N        0.0748500560922263        0.2571723651362617       -0.4473191373252130        0.5225510325000000
N       -0.2398424910764625        1.2728380908978343       -0.4191727843378830        0.0948963128000000
O       -0.4300282227081293        0.0667116507943966       -0.1960952813340458       -0.6174473453000000
O        0.4300282227081293        0.0667116507943966       -0.1960952813340458       -0.6174473453000000
N        0.0748500560922263       -0.2571723651362617       -0.4473191373252130        0.5225510325000000
N       -0.2398424910764625       -1.2728380908978343       -0.4191727843378830        0.0948963128000000

        RMSE         4.635930766E+00 kcal/mol
         MAE         3.582049621E+00 kcal/mol
     max. AE         2.087675671E+01 kcal/mol

Coordinates in bohr
s                   x[bohr]                   y[bohr]                   z[bohr]                      q[e]
+        0.1414461064894639        0.4859853371437738       -0.8453106602207129        0.5225510325000000
+       -0.4532366213820772        2.4053153938475034       -0.7921217616441973        0.0948963128000000
-       -0.8126355671357494        0.1260667493785908       -0.3705663762159491       -0.6174473453000000
-        0.8126355671357494        0.1260667493785908       -0.3705663762159491       -0.6174473453000000
+        0.1414461064894639       -0.4859853371437738       -0.8453106602207129        0.5225510325000000
+       -0.4532366213820772       -2.4053153938475034       -0.7921217616441973        0.0948963128000000
