3
s                      x[A]                      y[A]                      z[A]                      q[e]
N        0.0000000000000000        0.7727611849818757       -0.3829327383748174        0.3379860774420776
O        0.0000000000000000        0.0000000000000000        0.0957329200050990       -0.6759721250818329
N        0.0000000000000000       -0.7727611849818757       -0.3829327383748174        0.3379860774420776

        RMSE         2.482314402E+00 kcal/mol
         MAE         1.894324924E+00 kcal/mol
     max. AE         1.011675187E+01 kcal/mol

Coordinates in bohr
s                   x[bohr]                   y[bohr]                   z[bohr]                      q[e]
+        0.0000000000000000        1.4603070000000000       -0.7236380000000000        0.3379860774420776
-        0.0000000000000000        0.0000000000000000        0.1809090000000000       -0.6759721250818329
+        0.0000000000000000       -1.4603070000000000       -0.7236380000000000        0.3379860774420776
