6
s                      x[A]                      y[A]                      z[A]                      q[e]
N        0.0000000000000000        0.9290196583506740       -0.5443419958548090        0.2314283515440728
N       -0.0000000000000000        0.7002120553782453       -0.8403500620900238        0.1229317230114044
O       -0.1852120237345000       -0.0028709939710050        0.0946915137715330       -0.3543600596543159
O        0.1852120237345000       -0.0028709939710050        0.0946915137715330       -0.3543600596543159
N       -0.0000000000000000       -0.9290196583506740       -0.5443419958548090        0.2314283515440728
N        0.0000000000000000       -0.7002120553782453       -0.8403500620900238        0.1229317230114044

        RMSE         1.667087964E+00 kcal/mol
         MAE         1.296707005E+00 kcal/mol
     max. AE         7.415975984E+00 kcal/mol

Coordinates in bohr
s                   x[bohr]                   y[bohr]                   z[bohr]                      q[e]
+        0.0000000000000000        1.7555927194491745       -1.0286572907506895        0.2314283515440728
+       -0.0000000000000000        1.3232090144087936       -1.5880314668616260        0.1229317230114044
-       -0.3500000000000000       -0.0054253923130400        0.1789410274332157       -0.3543600596543159
-        0.3500000000000000       -0.0054253923130400        0.1789410274332157       -0.3543600596543159
+       -0.0000000000000000       -1.7555927194491745       -1.0286572907506895        0.2314283515440728
+        0.0000000000000000       -1.3232090144087936       -1.5880314668616260        0.1229317230114044
