3
s                      x[A]                      y[A]                      z[A]                      q[e]
N        0.8015145579008408       -0.3246147638729301        0.0000000000000000        0.3613484133133580
O        0.0000000000000000        0.1041690630976002        0.0000000000000000       -0.7226967968243936
N       -0.8015145579008408       -0.5087382700850819        0.0000000000000000        0.3613484133133580

        RMSE         2.373069025E+00 kcal/mol
         MAE         1.805362029E+00 kcal/mol
     max. AE         9.615279070E+00 kcal/mol

Coordinates in bohr
s                   x[bohr]                   y[bohr]                   z[bohr]                      q[e]
+        1.5146430000000000       -0.6134330000000000        0.0000000000000000        0.3613484133133580
-        0.0000000000000000        0.1968510000000000        0.0000000000000000       -0.7226967968243936
+       -1.5146430000000000       -0.9613760000000000        0.0000000000000000        0.3613484133133580
