6
s                      x[A]                      y[A]                      z[A]                      q[e]
N        0.0000000000000000        0.9961342339958899       -0.2662513045786596        0.2314283515440728
N        0.0000000000000000        0.8577811393106682       -0.6138604466410084        0.1229317230114044
O       -0.1852120237345000        0.0109998729883600        0.0415038582802202       -0.3543600596543159
O        0.1852120237345000        0.0109998729883600        0.0415038582802202       -0.3543600596543159
N       -0.0000000000000000       -0.9961342339958899       -0.2662513045786596        0.2314283515440728
N        0.0000000000000000       -0.8577811393106682       -0.6138604466410084        0.1229317230114044

        RMSE         1.698765588E+00 kcal/mol
         MAE         1.406288864E+00 kcal/mol
     max. AE         5.902576447E+00 kcal/mol

Coordinates in bohr
s                   x[bohr]                   y[bohr]                   z[bohr]                      q[e]
+        0.0000000000000000        1.8824208864449545       -0.5031420461995225        0.2314283515440728
+        0.0000000000000000        1.6209714288803507       -1.1600281234027245        0.1229317230114044
-       -0.3500000000000000        0.0207867473628217        0.0784309252994312       -0.3543600596543159
-        0.3500000000000000        0.0207867473628217        0.0784309252994312       -0.3543600596543159
+       -0.0000000000000000       -1.8824208864449545       -0.5031420461995225        0.2314283515440728
+        0.0000000000000000       -1.6209714288803507       -1.1600281234027245        0.1229317230114044
