6
s                      x[A]                      y[A]                      z[A]                      q[e]
N        0.9410281546557410       -0.4273245751450900        0.0000000000000000        0.1979110689179275
N        0.5923125286009784       -0.9051741616122647        0.0000000000000000        0.1054997195048966
O        0.0044496222760385        0.1431743339212689       -0.2910474658684998       -0.3034107735216629
O        0.0044496222760385        0.1431743339212689        0.2910474658684998       -0.3034107735216629
N       -0.9451442072484553       -0.5101792568758282        0.0000000000000000        0.1979110689179275
N       -0.5736380248162168       -0.9705334374327548        0.0000000000000000        0.1054997195048966

        RMSE         1.241998728E+00 kcal/mol
         MAE         8.814084229E-01 kcal/mol
     max. AE         6.320752940E+00 kcal/mol

Coordinates in bohr
s                   x[bohr]                   y[bohr]                   z[bohr]                      q[e]
+        1.7782854886443233       -0.8075264137018435        0.0000000000000000        0.1979110689179275
+        1.1193084597332559       -1.7105312612880830        0.0000000000000000        0.1054997195048966
-        0.0084085674634490        0.2705602793060448       -0.5499999999999997       -0.3034107735216629
-        0.0084085674634490        0.2705602793060448        0.5499999999999997       -0.3034107735216629
+       -1.7860637007625340       -0.9640990703849129        0.0000000000000000        0.1979110689179275
+       -1.0840187620512309       -1.8340423923470672        0.0000000000000000        0.1054997195048966
