6
s                      x[A]                      y[A]                      z[A]                      q[e]
N        0.0748500645097295        0.2151320196216822       -0.4256652079493276        0.5225510325000000
N       -0.2398423457452669        1.2307974639342272       -0.3975189089486575        0.0948963128000000
O       -0.4300281244326742        0.0667117372306383       -0.2015086923948534       -0.6174473453000000
O        0.4300281244326742        0.0667117372306383       -0.2015086923948534       -0.6174473453000000
N        0.0748500645097295       -0.2151320196216822       -0.4256652079493276        0.5225510325000000
N       -0.2398423457452669       -1.2307974639342272       -0.3975189089486575        0.0948963128000000

        RMSE         4.902500547E+00 kcal/mol
         MAE         3.814759886E+00 kcal/mol
     max. AE         1.738944754E+01 kcal/mol

Coordinates in bohr
s                   x[bohr]                   y[bohr]                   z[bohr]                      q[e]
+        0.1414461223962397        0.4065405979015989       -0.8043906641602836        0.5225510325000000
+       -0.4532363467459201        2.3258701227437482       -0.7512018676037697        0.0948963128000000
-       -0.8126353814220543        0.1260669127194149       -0.3807962405253996       -0.6174473453000000
-        0.8126353814220543        0.1260669127194149       -0.3807962405253996       -0.6174473453000000
+        0.1414461223962397       -0.4065405979015989       -0.8043906641602836        0.5225510325000000
+       -0.4532363467459201       -2.3258701227437482       -0.7512018676037697        0.0948963128000000
