6
s                      x[A]                      y[A]                      z[A]                      q[e]
N        0.0000000000000000        1.0829325267117174       -0.3059787560987279        0.2314283515440728
N        0.0000000000000000        0.9445794293310044       -0.6535878970882349        0.1229317230114044
O       -0.1852120237345000        0.0109998726101253        0.0514359852619883       -0.3543600596543159
O        0.1852120237345000        0.0109998726101253        0.0514359852619883       -0.3543600596543159
N       -0.0000000000000000       -1.0829325267117174       -0.3059787560987279        0.2314283515440728
N        0.0000000000000000       -0.9445794293310044       -0.6535878970882349        0.1229317230114044

        RMSE         1.251415534E+00 kcal/mol
         MAE         1.003375547E+00 kcal/mol
     max. AE         5.565448661E+00 kcal/mol

Coordinates in bohr
s                   x[bohr]                   y[bohr]                   z[bohr]                      q[e]
+        0.0000000000000000        2.0464458878351897       -0.5782160492348548        0.2314283515440728
+        0.0000000000000000        1.7849964251768453       -1.2351021244106799        0.1229317230114044
-       -0.3500000000000000        0.0207867466480618        0.0971999251382430       -0.3543600596543159
-        0.3500000000000000        0.0207867466480618        0.0971999251382430       -0.3543600596543159
+       -0.0000000000000000       -2.0464458878351897       -0.5782160492348548        0.2314283515440728
+        0.0000000000000000       -1.7849964251768453       -1.2351021244106799        0.1229317230114044
