6
s                      x[A]                      y[A]                      z[A]                      q[e]
N        1.0565848601832615       -0.3697046830552946        0.0000000000000000        0.2314283515440728
N        0.8976063772007563       -0.7083778830621469        0.0000000000000000        0.1229317230114044
O        0.0080508010646569        0.0514381267600005       -0.1852120237345000       -0.3543600596543159
O        0.0080508010646569        0.0514381267600005        0.1852120237345000       -0.3543600596543159
N       -1.0488066299183474       -0.2542772287972146        0.0000000000000000        0.2314283515440728
N       -0.9192504168120016       -0.6052599664066918        0.0000000000000000        0.1229317230114044

        RMSE         1.233740409E+00 kcal/mol
         MAE         9.994219400E-01 kcal/mol
     max. AE         5.405792900E+00 kcal/mol

Coordinates in bohr
s                   x[bohr]                   y[bohr]                   z[bohr]                      q[e]
+        1.9966560140515157       -0.6986405982736962        0.0000000000000000        0.2314283515440728
+        1.6962302213738230       -1.3386401923190494        0.0000000000000000        0.1229317230114044
-        0.0152138091027459        0.0972039719829845       -0.3500000000000000       -0.3543600596543159
-        0.0152138091027459        0.0972039719829845        0.3500000000000000       -0.3543600596543159
+       -1.9819572891100807       -0.4805143223671141        0.0000000000000000        0.2314283515440728
+       -1.7371315284876374       -1.1437755712124529        0.0000000000000000        0.1229317230114044
