6
s                      x[A]                      y[A]                      z[A]                      q[e]
N        0.0000000000000000        1.1068595235526104       -0.2027015593809298        0.1979110689179275
N        0.0000000000000000        0.9092755245352241       -0.7602886633152947        0.1054997195048966
O       -0.2910474658684998        0.0028902523173443        0.1011245936018344       -0.3034107735216629
O        0.2910474658684998        0.0028902523173443        0.1011245936018344       -0.3034107735216629
N       -0.0000000000000000       -1.1068595235526104       -0.2027015593809298        0.1979110689179275
N        0.0000000000000000       -0.9092755245352241       -0.7602886633152947        0.1054997195048966

        RMSE         1.364980106E+00 kcal/mol
         MAE         1.110693567E+00 kcal/mol
     max. AE         4.535356277E+00 kcal/mol

Coordinates in bohr
s                   x[bohr]                   y[bohr]                   z[bohr]                      q[e]
+        0.0000000000000000        2.0916613588691724       -0.3830504324331844        0.1979110689179275
+        0.0000000000000000        1.7182817139535833       -1.4367373499563230        0.1054997195048966
-       -0.5499999999999997        0.0054617853132505        0.1910977864556921       -0.3034107735216629
-        0.5499999999999997        0.0054617853132505        0.1910977864556921       -0.3034107735216629
+       -0.0000000000000000       -2.0916613588691724       -0.3830504324331844        0.1979110689179275
+        0.0000000000000000       -1.7182817139535833       -1.4367373499563230        0.1054997195048966
