6
s                      x[A]                      y[A]                      z[A]                      q[e]
N        0.0790939148678480       -0.0204639036550578       -0.5134794469403856        0.5225510325000000
N       -0.5172508420881655        1.4335286687657398       -0.5138531032792871        0.0948963128000000
O       -0.5680684082576858       -0.0667480674522344       -0.3394675253967032       -0.6174473453000000
O        0.5680684082576858       -0.0667480674522344       -0.3394675253967032       -0.6174473453000000
N        0.0790939148678480        0.0204639036550578       -0.5134794469403856        0.5225510325000000
N       -0.5172508420881655       -1.4335286687657398       -0.5138531032792871        0.0948963128000000

        RMSE         8.077519881E+00 kcal/mol
         MAE         6.746352824E+00 kcal/mol
     max. AE         3.725252400E+01 kcal/mol

Coordinates in bohr
s                   x[bohr]                   y[bohr]                   z[bohr]                      q[e]
+        0.1494658372905098       -0.0386711733658147       -0.9703355257688834        0.5225510325000000
+       -0.9774624297090679        2.7089765769593996       -0.9710416339144485        0.0948963128000000
-       -1.0734937121317922       -0.1261355668883086       -0.6415006514866688       -0.6174473453000000
-        1.0734937121317922       -0.1261355668883086       -0.6415006514866688       -0.6174473453000000
+        0.1494658372905098        0.0386711733658147       -0.9703355257688834        0.5225510325000000
+       -0.9774624297090679       -2.7089765769593996       -0.9710416339144485        0.0948963128000000
