6
s                      x[A]                      y[A]                      z[A]                      q[e]
N        0.0000000000000000        0.5284424178665357       -0.1533751612586725        0.5225510325000000
N        0.0000000000000000        0.9986376579386972       -0.7939495861160756        0.0948963129000000
O       -0.3455139784000000        0.0010497433804715        0.1434962132551964       -0.6174473453000000
O        0.3455139784000000        0.0010497433804715        0.1434962132551964       -0.6174473453000000
N       -0.0000000000000000       -0.5284424178665357       -0.1533751612586725        0.5225510325000000
N        0.0000000000000000       -0.9986376579386972       -0.7939495861160756        0.0948963129000000

        RMSE         1.238676926E+00 kcal/mol
         MAE         1.022076470E+00 kcal/mol
     max. AE         4.451488576E+00 kcal/mol

Coordinates in bohr
s                   x[bohr]                   y[bohr]                   z[bohr]                      q[e]
+        0.0000000000000000        0.9986114428424951       -0.2898370492268207        0.5225510325000000
+        0.0000000000000000        1.8871516720727741       -1.5003472751799778        0.0948963129000000
-       -0.6529267916933517        0.0019837274911034        0.2711685430926126       -0.6174473453000000
-        0.6529267916933517        0.0019837274911034        0.2711685430926126       -0.6174473453000000
+       -0.0000000000000000       -0.9986114428424951       -0.2898370492268207        0.5225510325000000
+        0.0000000000000000       -1.8871516720727741       -1.5003472751799778        0.0948963129000000
