3
s                      x[A]                      y[A]                      z[A]                      q[e]
N        0.6732801027936011       -0.5394728824807955        0.0000000000000000        0.3379860774420776
O        0.0000000000000000        0.1434430081418956        0.0000000000000000       -0.6759721250818329
N       -0.6732801027936011       -0.6080717118315797        0.0000000000000000        0.3379860774420776

        RMSE         2.365978243E+00 kcal/mol
         MAE         1.851668925E+00 kcal/mol
     max. AE         9.101767873E+00 kcal/mol

Coordinates in bohr
s                   x[bohr]                   y[bohr]                   z[bohr]                      q[e]
+        1.2723150000000001       -1.0194559999999999        0.0000000000000000        0.3379860774420776
-        0.0000000000000000        0.2710680000000000        0.0000000000000000       -0.6759721250818329
+       -1.2723150000000001       -1.1490890000000000        0.0000000000000000        0.3379860774420776
