6
s                      x[A]                      y[A]                      z[A]                      q[e]
N        0.0000000000000000        1.1382931797401279       -0.2564602092861778        0.1979110689179275
N       -0.0000000000000000        0.9213702450356683       -0.8068121471775780        0.1054997195048966
O       -0.2910474658684998        0.0030936097784976        0.1120376155727816       -0.3034107735216629
O        0.2910474658684998        0.0030936097784976        0.1120376155727816       -0.3034107735216629
N       -0.0000000000000000       -1.1382931797401279       -0.2564602092861778        0.1979110689179275
N        0.0000000000000000       -0.9213702450356683       -0.8068121471775780        0.1054997195048966

        RMSE         9.853986452E-01 kcal/mol
         MAE         7.474279400E-01 kcal/mol
     max. AE         4.468314128E+00 kcal/mol

Coordinates in bohr
s                   x[bohr]                   y[bohr]                   z[bohr]                      q[e]
+        0.0000000000000000        2.1510623601853829       -0.4846395576284725        0.1979110689179275
+       -0.0000000000000000        1.7411374232633832       -1.5246539928581955        0.1054997195048966
-       -0.5499999999999997        0.0058460752203988        0.2117204091818862       -0.3034107735216629
-        0.5499999999999997        0.0058460752203988        0.2117204091818862       -0.3034107735216629
+       -0.0000000000000000       -2.1510623601853829       -0.4846395576284725        0.1979110689179275
+        0.0000000000000000       -1.7411374232633832       -1.5246539928581955        0.1054997195048966
