6
s                      x[A]                      y[A]                      z[A]                      q[e]
N        0.1161186175618112       -0.4557785472266588        0.0734782053958429        0.5225510325000000
N        1.3250127522688939       -0.3553030631542648       -0.3554828337140069        0.0948963128000000
O        0.0276541615908576       -0.2547381422342909       -0.4947740411281802       -0.6174473453000000
O        0.0276541615908576       -0.2547381422342909        0.4947740411281802       -0.6174473453000000
N       -0.1141659467828516       -0.4939784924557503        0.0734782053958429        0.5225510325000000
N       -1.3271504870063686       -0.4802359669414374       -0.3554828337140069        0.0948963128000000

        RMSE         5.178211327E+00 kcal/mol
         MAE         4.189566144E+00 kcal/mol
     max. AE         2.120702081E+01 kcal/mol

Coordinates in bohr
s                   x[bohr]                   y[bohr]                   z[bohr]                      q[e]
+        0.2194323852586009       -0.8612966281174317        0.1388536843882807        0.5225510325000000
+        2.5039112145273101       -0.6714254808978068       -0.6717651980211395        0.0948963128000000
-        0.0522587916358759       -0.4813853225307317       -0.9349874317182680       -0.6174473453000000
-        0.0522587916358759       -0.4813853225307317        0.9349874317182680       -0.6174473453000000
+       -0.2157423722731828       -0.9334840626079041        0.1388536843882807        0.5225510325000000
+       -2.5079509477100146       -0.9075144531137361       -0.6717651980211395        0.0948963128000000
