6
s                      x[A]                      y[A]                      z[A]                      q[e]
N        1.1158260627468040       -0.3202462132727327        0.0000000000000000        0.1979110689179275
N        0.8679592638005141       -0.8573727022134053       -0.0000000000000000        0.1054997195048966
O        0.0034168769256061        0.1122069104067043       -0.2910474658684998       -0.3034107735216629
O        0.0034168769256061        0.1122069104067043        0.2910474658684998       -0.3034107735216629
N       -1.1029182886169155       -0.2056038323160769        0.0000000000000000        0.1979110689179275
N       -0.8981475524291258       -0.7605919049291063        0.0000000000000000        0.1054997195048966

        RMSE         9.663913264E-01 kcal/mol
         MAE         7.498724629E-01 kcal/mol
     max. AE         4.018842876E+00 kcal/mol

Coordinates in bohr
s                   x[bohr]                   y[bohr]                   z[bohr]                      q[e]
+        2.1086056622393814       -0.6051776358004224        0.0000000000000000        0.1979110689179275
+        1.6402052966369745       -1.6201995946270467       -0.0000000000000000        0.1054997195048966
-        0.0064569615937919        0.2120403300524551       -0.5499999999999997       -0.3034107735216629
-        0.0064569615937919        0.2120403300524551        0.5499999999999997       -0.3034107735216629
+       -2.0842135042446226       -0.3885349334219410        0.0000000000000000        0.1979110689179275
+       -1.6972528943413234       -1.4373103935562690        0.0000000000000000        0.1054997195048966
