3
s                      x[A]                      y[A]                      z[A]                      q[e]
N        0.0000000000000000        0.7466510522302072       -0.4147622184194073        0.3613484133133580
O        0.0000000000000000        0.0000000000000000        0.1036906868991545       -0.7226967968243936
N        0.0000000000000000       -0.7466510522302072       -0.4147622184194073        0.3613484133133580

        RMSE         2.208086308E+00 kcal/mol
         MAE         1.668957371E+00 kcal/mol
     max. AE         9.257790758E+00 kcal/mol

Coordinates in bohr
s                   x[bohr]                   y[bohr]                   z[bohr]                      q[e]
+        0.0000000000000000        1.4109659999999999       -0.7837870000000000        0.3613484133133580
-        0.0000000000000000        0.0000000000000000        0.1959470000000000       -0.7226967968243936
+        0.0000000000000000       -1.4109659999999999       -0.7837870000000000        0.3613484133133580
