6
s                      x[A]                      y[A]                      z[A]                      q[e]
N        0.2254483646259037       -0.4139663500967799        0.0737617062265613        0.5225510325000000
N        1.2820400867892416       -0.2945889121884395       -0.2652079334974867        0.0948963128000000
O        0.0771878608963283       -0.2011895101522333       -0.4461857541808538       -0.6174473453000000
O        0.0771878608963283       -0.2011895101522333        0.4461857541808538       -0.6174473453000000
N       -0.2205487517078859       -0.5044965286628034        0.0737617062265613        0.5225510325000000
N       -1.2828758934795272       -0.5503013742683033       -0.2652079334974867        0.0948963128000000

        RMSE         4.906053085E+00 kcal/mol
         MAE         3.789863525E+00 kcal/mol
     max. AE         2.181871980E+01 kcal/mol

Coordinates in bohr
s                   x[bohr]                   y[bohr]                   z[bohr]                      q[e]
+        0.4260356645753127       -0.7822830268383067        0.1393894233146782        0.5225510325000000
+        2.4227046458898513       -0.5566923636326961       -0.5011703606088829        0.0948963128000000
-        0.1458639173039963       -0.3801930735027382       -0.8431688764826638       -0.6174473453000000
-        0.1458639173039963       -0.3801930735027382        0.8431688764826638       -0.6174473453000000
+       -0.4167767380395038       -0.9533602704168836        0.1393894233146782        0.5225510325000000
+       -2.4242840916283166       -1.0399188838301590       -0.5011703606088829        0.0948963128000000
