3
s                      x[A]                      y[A]                      z[A]                      q[e]
N        0.6856654954093324       -0.5294089902882735        0.0000000000000000        0.3379860774420776
O        0.0000000000000000        0.1410712358836726        0.0000000000000000       -0.6759721250818329
N       -0.6856654954093324       -0.5991608967811075        0.0000000000000000        0.3379860774420776

        RMSE         2.338947176E+00 kcal/mol
         MAE         1.833964700E+00 kcal/mol
     max. AE         9.094741206E+00 kcal/mol

Coordinates in bohr
s                   x[bohr]                   y[bohr]                   z[bohr]                      q[e]
+        1.2957200000000000       -1.0004379999999999        0.0000000000000000        0.3379860774420776
-        0.0000000000000000        0.2665860000000000        0.0000000000000000       -0.6759721250818329
+       -1.2957200000000000       -1.1322500000000000        0.0000000000000000        0.3379860774420776
