3
s                      x[A]                      y[A]                      z[A]                      q[e]
N        0.0000000000000000        0.7524788808513160       -0.5377625817359101        0.3379860774420776
O        0.0000000000000000        0.0000000000000000        0.1344406454339775       -0.6759721250818329
N        0.0000000000000000       -0.7524788808513160       -0.5377625817359101        0.3379860774420776

        RMSE         2.393365481E+00 kcal/mol
         MAE         1.890757601E+00 kcal/mol
     max. AE         9.398902571E+00 kcal/mol

Coordinates in bohr
s                   x[bohr]                   y[bohr]                   z[bohr]                      q[e]
+        0.0000000000000000        1.4219790000000001       -1.0162240000000000        0.3379860774420776
-        0.0000000000000000        0.0000000000000000        0.2540560000000000       -0.6759721250818329
+        0.0000000000000000       -1.4219790000000001       -1.0162240000000000        0.3379860774420776
