6
s                      x[A]                      y[A]                      z[A]                      q[e]
N        1.0488917456499796       -0.2179827177809773        0.0000000000000000        0.1979110689179275
N        0.8243779331994552       -0.7652818710422861        0.0000000000000000        0.1054997195048966
O        0.0031731573347879        0.1123509427758749       -0.2910474658684998       -0.3034107735216629
O        0.0031731573347879        0.1123509427758749        0.2910474658684998       -0.3034107735216629
N       -1.0607315782359581       -0.3278431875104698        0.0000000000000000        0.1979110689179275
N       -0.7947521253995612       -0.8562348469927764        0.0000000000000000        0.1054997195048966

        RMSE         9.755511201E-01 kcal/mol
         MAE         7.827825203E-01 kcal/mol
     max. AE         4.170339030E+00 kcal/mol

Coordinates in bohr
s                   x[bohr]                   y[bohr]                   z[bohr]                      q[e]
+        1.9821181345318335       -0.4119276366890134        0.0000000000000000        0.1979110689179275
+        1.5578485176179386       -1.4461731450478565        0.0000000000000000        0.1054997195048966
-        0.0059963983157368        0.2123125117833883       -0.5499999999999997       -0.3034107735216629
-        0.0059963983157368        0.2123125117833883        0.5499999999999997       -0.3034107735216629
+       -2.0044921754906042       -0.6195338364919044        0.0000000000000000        0.1979110689179275
+       -1.5018638546306868       -1.6180493598896357        0.0000000000000000        0.1054997195048966
