6
s                      x[A]                      y[A]                      z[A]                      q[e]
N        0.0000000000000000        1.0345413799092837       -0.3991908429720346        0.2314283515440728
N       -0.0000000000000000        0.8606110710678389       -0.7304338687410608        0.1229317230114044
O       -0.1852120237345000        0.0058410234085242        0.0683136349363150       -0.3543600596543159
O        0.1852120237345000        0.0058410234085242        0.0683136349363150       -0.3543600596543159
N       -0.0000000000000000       -1.0345413799092837       -0.3991908429720346        0.2314283515440728
N        0.0000000000000000       -0.8606110710678389       -0.7304338687410608        0.1229317230114044

        RMSE         8.543582297E-01 kcal/mol
         MAE         5.712657312E-01 kcal/mol
     max. AE         6.016878759E+00 kcal/mol

Coordinates in bohr
s                   x[bohr]                   y[bohr]                   z[bohr]                      q[e]
+        0.0000000000000000        1.9549998734817660       -0.7543613650077872        0.2314283515440728
+       -0.0000000000000000        1.6263192248551388       -1.3803199646792166        0.1229317230114044
-       -0.3500000000000000        0.0110379345344990        0.1290940606641431       -0.3543600596543159
-        0.3500000000000000        0.0110379345344990        0.1290940606641431       -0.3543600596543159
+       -0.0000000000000000       -1.9549998734817660       -0.7543613650077872        0.2314283515440728
+        0.0000000000000000       -1.6263192248551388       -1.3803199646792166        0.1229317230114044
