3
s                      x[A]                      y[A]                      z[A]                      q[e]
N        0.0000000000000000        0.8483700248424053       -0.4369707275968059        0.3379860774420776
O        0.0000000000000000        0.0000000000000000        0.1092428141935041       -0.6759721250818329
N        0.0000000000000000       -0.8483700248424053       -0.4369707275968059        0.3379860774420776

        RMSE         2.512652937E+00 kcal/mol
         MAE         1.899488852E+00 kcal/mol
     max. AE         1.069621053E+01 kcal/mol

Coordinates in bohr
s                   x[bohr]                   y[bohr]                   z[bohr]                      q[e]
+        0.0000000000000000        1.6031869999999999       -0.8257550000000000        0.3379860774420776
-        0.0000000000000000        0.0000000000000000        0.2064390000000000       -0.6759721250818329
+        0.0000000000000000       -1.6031869999999999       -0.8257550000000000        0.3379860774420776
