6
s                      x[A]                      y[A]                      z[A]                      q[e]
N        0.5696214529442357       -0.0734417105734490        0.0000000000000000        0.5225510325000000
N        1.1463920368261125       -0.6200264259986693        0.0000000000000000        0.0948963129000000
O       -0.0022146568851861        0.1247481926692013       -0.3455139784000000       -0.6174473453000000
O       -0.0022146568851861        0.1247481926692013        0.3455139784000000       -0.6174473453000000
N       -0.5946018365425281       -0.1464715103388461        0.0000000000000000        0.5225510325000000
N       -1.1265083216747196       -0.7368058636016631        0.0000000000000000        0.0948963129000000

        RMSE         6.068009906E-01 kcal/mol
         MAE         4.757866378E-01 kcal/mol
     max. AE         2.893709471E+00 kcal/mol

Coordinates in bohr
s                   x[bohr]                   y[bohr]                   z[bohr]                      q[e]
+        1.0764285412499692       -0.1387847191689590        0.0000000000000000        0.5225510325000000
+        2.1663669820071174       -1.1716801356839301        0.0000000000000000        0.0948963129000000
-       -0.0041850949748612        0.2357399187906364       -0.6529267916933517       -0.6174473453000000
-       -0.0041850949748612        0.2357399187906364        0.6529267916933517       -0.6174473453000000
+       -1.1236346247596205       -0.2767910397225838        0.0000000000000000        0.5225510325000000
+       -2.1287922060143685       -1.3923612898385798        0.0000000000000000        0.0948963129000000
