6
s                      x[A]                      y[A]                      z[A]                      q[e]
N        1.0656075311342261       -0.1576664267021071        0.0000000000000000        0.1979110689179275
N        0.8724824685998245       -0.7168135677684800        0.0000000000000000        0.1054997195048966
O        0.0028432254582654        0.1128518279828082       -0.2910474658684998       -0.3034107735216629
O        0.0028432254582654        0.1128518279828082        0.2910474658684998       -0.3034107735216629
N       -1.0902769126813394       -0.3814924563326216        0.0000000000000000        0.1979110689179275
N       -0.8128338849373509       -0.9039560258739470        0.0000000000000000        0.1054997195048966

        RMSE         9.905804246E-01 kcal/mol
         MAE         7.827960336E-01 kcal/mol
     max. AE         4.366311175E+00 kcal/mol

Coordinates in bohr
s                   x[bohr]                   y[bohr]                   z[bohr]                      q[e]
+        2.0137063910689630       -0.2979463656465535        0.0000000000000000        0.1979110689179275
+        1.6487529149170275       -1.3545813260947321        0.0000000000000000        0.1054997195048966
-        0.0053729174290510        0.2132590476447854       -0.5499999999999997       -0.3034107735216629
-        0.0053729174290510        0.2132590476447854        0.5499999999999997       -0.3034107735216629
+       -2.0603247658774304       -0.7209162613968347        0.0000000000000000        0.1979110689179275
+       -1.5360334280234942       -1.7082293183590300        0.0000000000000000        0.1054997195048966
