6
s                      x[A]                      y[A]                      z[A]                      q[e]
N        0.5729405249955796       -0.0654836301500059        0.0000000000000000        0.5225510325000000
N        1.1599945684115971       -0.6010083332933952        0.0000000000000000        0.0948963129000000
O       -0.0025587921327171        0.1218029387023494       -0.3455139784000000       -0.6174473453000000
O       -0.0025587921327171        0.1218029387023494        0.3455139784000000       -0.6174473453000000
N       -0.5985504476021635       -0.1398852218954153        0.0000000000000000        0.5225510325000000
N       -1.1397758330629197       -0.7216877998381106        0.0000000000000000        0.0948963129000000

        RMSE         8.153151828E-01 kcal/mol
         MAE         6.193438596E-01 kcal/mol
     max. AE         3.114888293E+00 kcal/mol

Coordinates in bohr
s                   x[bohr]                   y[bohr]                   z[bohr]                      q[e]
+        1.0827006784176705       -0.1237461266842841        0.0000000000000000        0.5225510325000000
+        2.1920720413165729       -1.1357411490423948        0.0000000000000000        0.0948963129000000
-       -0.0048354163428114        0.2301741954233680       -0.6529267916933517       -0.6174473453000000
-       -0.0048354163428114        0.2301741954233680        0.6529267916933517       -0.6174473453000000
+       -1.1310964182382852       -0.2643447583812317        0.0000000000000000        0.5225510325000000
+       -2.1538641689044598       -1.3637922897782573        0.0000000000000000        0.0948963129000000
