6
s                      x[A]                      y[A]                      z[A]                      q[e]
N        0.0000000000000000        0.5866416379966801       -0.1502181914563912        0.5225510325000000
N        0.0000000000000000        1.1003757724405714       -0.7564330021259228        0.0948963129000000
O       -0.3455139784000000       -0.0002247281980483        0.1390746431147845       -0.6174473453000000
O        0.3455139784000000       -0.0002247281980483        0.1390746431147845       -0.6174473453000000
N        0.0000000000000000       -0.5866416379966801       -0.1502181914563912        0.5225510325000000
N        0.0000000000000000       -1.1003757724405714       -0.7564330021259228        0.0948963129000000

        RMSE         5.498963931E-01 kcal/mol
         MAE         3.939274702E-01 kcal/mol
     max. AE         2.814614647E+00 kcal/mol

Coordinates in bohr
s                   x[bohr]                   y[bohr]                   z[bohr]                      q[e]
+        0.0000000000000000        1.1085920296037002       -0.2838712409141683        0.5225510325000000
+        0.0000000000000000        2.0794088450017858       -1.4294512062758531        0.0948963129000000
-       -0.6529267916933517       -0.0004246747469790        0.2628129864827319       -0.6174473453000000
-        0.6529267916933517       -0.0004246747469790        0.2628129864827319       -0.6174473453000000
+        0.0000000000000000       -1.1085920296037002       -0.2838712409141683        0.5225510325000000
+        0.0000000000000000       -2.0794088450017858       -1.4294512062758531        0.0948963129000000
