6
s                      x[A]                      y[A]                      z[A]                      q[e]
N        1.0490142130102118       -0.3834188932668878        0.0000000000000000        0.2314283515440728
N        0.8847011471082299       -0.7195362995822867       -0.0000000000000000        0.1229317230114044
O        0.0072695749589915        0.0542486526891238       -0.1852120237345000       -0.3543600596543159
O        0.0072695749589915        0.0542486526891238        0.1852120237345000       -0.3543600596543159
N       -1.0418353297843324       -0.2713085923858417        0.0000000000000000        0.2314283515440728
N       -0.9056004882899165       -0.6197533690970036        0.0000000000000000        0.1229317230114044

        RMSE         1.129545627E+00 kcal/mol
         MAE         9.063903481E-01 kcal/mol
     max. AE         5.321911562E+00 kcal/mol

Coordinates in bohr
s                   x[bohr]                   y[bohr]                   z[bohr]                      q[e]
+        1.9823495643019804       -0.7245566996005645        0.0000000000000000        0.2314283515440728
+        1.6718428709129314       -1.3597265435358978       -0.0000000000000000        0.1229317230114044
-        0.0137375057209803        0.1025150962575253       -0.3500000000000000       -0.3543600596543159
-        0.0137375057209803        0.1025150962575253        0.3500000000000000       -0.3543600596543159
+       -1.9687834411184248       -0.5126989350927138        0.0000000000000000        0.2314283515440728
+       -1.7113369019488212       -1.1711641329231159        0.0000000000000000        0.1229317230114044
