6
s                      x[A]                      y[A]                      z[A]                      q[e]
N        0.1263116742343075       -0.5263679577700998        0.0741342289852974        0.5225510325000000
N        1.3879500658669095       -0.5080723190998587       -0.3869688118889754        0.0948963128000000
O       -0.0105814794514233       -0.2668847958839646       -0.5099683093147582       -0.6174473453000000
O       -0.0105814794514233       -0.2668847958839646        0.5099683093147582       -0.6174473453000000
N       -0.1279121894047539       -0.4873890257515243        0.0741342289852974        0.5225510325000000
N       -1.3856432932810805       -0.3864998193036198       -0.3869688118889754        0.0948963128000000

        RMSE         4.959164362E+00 kcal/mol
         MAE         3.999768438E+00 kcal/mol
     max. AE         2.209648854E+01 kcal/mol

Coordinates in bohr
s                   x[bohr]                   y[bohr]                   z[bohr]                      q[e]
+        0.2386944707508892       -0.9946912814020404        0.1400933893041894        0.5225510325000000
+        2.6228455002996123       -0.9601175350249492       -0.7312650735639725        0.0948963128000000
-       -0.0199960981653497       -0.5043391712694079       -0.9637004372676574       -0.6174473453000000
-       -0.0199960981653497       -0.5043391712694079        0.9637004372676574       -0.6174473453000000
+       -0.2417190060826734       -0.9210317752240936        0.1400933893041894        0.5225510325000000
+       -2.6184863318786813       -0.7303788060227802       -0.7312650735639725        0.0948963128000000
