3
s                      x[A]                      y[A]                      z[A]                      q[e]
N        0.0000000000000000        0.7281023326418025       -0.4353556787498410        0.3613484133133580
O        0.0000000000000000        0.0000000000000000        0.1088390519817629       -0.7226967968243936
N        0.0000000000000000       -0.7281023326418025       -0.4353556787498410        0.3613484133133580

        RMSE         2.102303184E+00 kcal/mol
         MAE         1.575035448E+00 kcal/mol
     max. AE         8.759293592E+00 kcal/mol

Coordinates in bohr
s                   x[bohr]                   y[bohr]                   z[bohr]                      q[e]
+        0.0000000000000000        1.3759140000000001       -0.8227030000000000        0.3613484133133580
-        0.0000000000000000        0.0000000000000000        0.2056760000000000       -0.7226967968243936
+        0.0000000000000000       -1.3759140000000001       -0.8227030000000000        0.3613484133133580
