6
s                      x[A]                      y[A]                      z[A]                      q[e]
N        0.0793080334409759       -0.0691752418443542       -0.4833170230822883        0.5225510325000000
N       -0.5216476299833608        1.3909314200014409       -0.5068392920172423        0.0948963128000000
O       -0.5699346177584371       -0.0758887839941829       -0.3459107396788468       -0.6174473453000000
O        0.5699346177584371       -0.0758887839941829       -0.3459107396788468       -0.6174473453000000
N        0.0793080334409759        0.0691752418443542       -0.4833170230822883        0.5225510325000000
N       -0.5216476299833608       -1.3909314200014409       -0.5068392920172423        0.0948963128000000

        RMSE         9.181477575E+00 kcal/mol
         MAE         7.681900706E+00 kcal/mol
     max. AE         4.030768291E+01 kcal/mol

Coordinates in bohr
s                   x[bohr]                   y[bohr]                   z[bohr]                      q[e]
+        0.1498704627520952       -0.1307222617481397       -0.9133368053971044        0.5225510325000000
+       -0.9857711546627153        2.6284794430968779       -0.9577874515335320        0.0948963128000000
-       -1.0770203369809397       -0.1434090177430333       -0.6536765618475586       -0.6174473453000000
-        1.0770203369809397       -0.1434090177430333       -0.6536765618475586       -0.6174473453000000
+        0.1498704627520952        0.1307222617481397       -0.9133368053971044        0.5225510325000000
+       -0.9857711546627153       -2.6284794430968779       -0.9577874515335320        0.0948963128000000
