6
s                      x[A]                      y[A]                      z[A]                      q[e]
N        1.0205752393101373       -0.3366603542223559        0.0000000000000000        0.2314283515440728
N        0.8661284792238414       -0.6774240447076335       -0.0000000000000000        0.1229317230114044
O        0.0087083601564203        0.0436275953557583       -0.1852120237345000       -0.3543600596543159
O        0.0087083601564203        0.0436275953557583        0.1852120237345000       -0.3543600596543159
N       -1.0117077906895113       -0.2167244347937568        0.0000000000000000        0.2314283515440728
N       -0.8897508389389376       -0.5704194960739623        0.0000000000000000        0.1229317230114044

        RMSE         1.571415710E+00 kcal/mol
         MAE         1.298641505E+00 kcal/mol
     max. AE         5.360279912E+00 kcal/mol

Coordinates in bohr
s                   x[bohr]                   y[bohr]                   z[bohr]                      q[e]
+        1.9286076927197415       -0.6361958667798726        0.0000000000000000        0.2314283515440728
+        1.6367456151923507       -1.2801459152973269       -0.0000000000000000        0.1229317230114044
-        0.0164564156974835        0.0824442067346791       -0.3500000000000000       -0.3543600596543159
-        0.0164564156974835        0.0824442067346791        0.3500000000000000       -0.3543600596543159
+       -1.9118506433951898       -0.4095498264548438        0.0000000000000000        0.2314283515440728
+       -1.6813854054909305       -1.0779366242014554        0.0000000000000000        0.1229317230114044
