3
s                      x[A]                      y[A]                      z[A]                      q[e]
N        0.0000000000000000        0.7809978282659543       -0.3720851347332931        0.3613484133133580
O        0.0000000000000000        0.0000000000000000        0.0930214159776259       -0.7226967968243936
N        0.0000000000000000       -0.7809978282659543       -0.3720851347332931        0.3613484133133580

        RMSE         2.459591146E+00 kcal/mol
         MAE         1.890671089E+00 kcal/mol
     max. AE         9.635979986E+00 kcal/mol

Coordinates in bohr
s                   x[bohr]                   y[bohr]                   z[bohr]                      q[e]
+        0.0000000000000000        1.4758720000000001       -0.7031390000000000        0.3613484133133580
-        0.0000000000000000        0.0000000000000000        0.1757850000000000       -0.7226967968243936
+        0.0000000000000000       -1.4758720000000001       -0.7031390000000000        0.3613484133133580
