6
s                      x[A]                      y[A]                      z[A]                      q[e]
N        0.9368915389713262       -0.5502140010431283        0.0000000000000000        0.2314283515440728
N        0.7115076285599196       -0.8488371538326651        0.0000000000000000        0.1229317230114044
O       -0.0022959835762077        0.0780466579399232       -0.1852120237345000       -0.3543600596543159
O       -0.0022959835762077        0.0780466579399232        0.1852120237345000       -0.3543600596543159
N       -0.9310961236703308       -0.3744563720869543       -0.0000000000000000        0.2314283515440728
N       -0.7419818973293136       -0.6972713405282248        0.0000000000000000        0.1229317230114044

        RMSE         9.957442605E-01 kcal/mol
         MAE         6.952113912E-01 kcal/mol
     max. AE         6.286268392E+00 kcal/mol

Coordinates in bohr
s                   x[bohr]                   y[bohr]                   z[bohr]                      q[e]
+        1.7704684179145060       -1.0397537723638803        0.0000000000000000        0.2314283515440728
+        1.3445545541522244       -1.6040697458568527        0.0000000000000000        0.1229317230114044
-       -0.0043387801475818        0.1474868085137436       -0.3500000000000000       -0.3543600596543159
-       -0.0043387801475818        0.1474868085137436        0.3500000000000000       -0.3543600596543159
+       -1.7595166702123370       -0.7076199891768750       -0.0000000000000000        0.2314283515440728
+       -1.4021425759999719       -1.3176518687291883        0.0000000000000000        0.1229317230114044
