6
s                      x[A]                      y[A]                      z[A]                      q[e]
N        0.8983212410496526       -0.5039244011528816        0.0000000000000000        0.2314283515440728
N        0.6714191387371450       -0.8013956273588198        0.0000000000000000        0.1229317230114044
O       -0.0025503829134496        0.0935062131003079       -0.1852120237345000       -0.3543600596543159
O       -0.0025503829134496        0.0935062131003079        0.1852120237345000       -0.3543600596543159
N       -0.8997615163863755       -0.5833052480283023        0.0000000000000000        0.2314283515440728
N       -0.6589193539953691       -0.8696070944581223        0.0000000000000000        0.1229317230114044

        RMSE         1.590399975E+00 kcal/mol
         MAE         1.226010906E+00 kcal/mol
     max. AE         7.220669514E+00 kcal/mol

Coordinates in bohr
s                   x[bohr]                   y[bohr]                   z[bohr]                      q[e]
+        1.6975811182652276       -0.9522791061142913        0.0000000000000000        0.2314283515440728
+        1.2687982876039769       -1.5144182538476278        0.0000000000000000        0.1229317230114044
-       -0.0048195252214669        0.1767011337882790       -0.3500000000000000       -0.3543600596543159
-       -0.0048195252214669        0.1767011337882790        0.3500000000000000       -0.3543600596543159
+       -1.7003028441968855       -1.1022871663157412        0.0000000000000000        0.2314283515440728
+       -1.2451771178148439       -1.6433192452809871        0.0000000000000000        0.1229317230114044
