6
s                      x[A]                      y[A]                      z[A]                      q[e]
N        0.0000000000000000        0.9959456350515199       -0.4589638050209833        0.2314283515440728
N        0.0000000000000000        0.7993326138860294       -0.7772671420479118        0.1229317230114044
O       -0.1852120237345000        0.0023627120107303        0.0791605128421670       -0.3543600596543159
O        0.1852120237345000        0.0023627120107303        0.0791605128421670       -0.3543600596543159
N       -0.0000000000000000       -0.9959456350515199       -0.4589638050209833        0.2314283515440728
N        0.0000000000000000       -0.7993326138860294       -0.7772671420479118        0.1229317230114044

        RMSE         1.030553193E+00 kcal/mol
         MAE         7.224641657E-01 kcal/mol
     max. AE         6.432299374E+00 kcal/mol

Coordinates in bohr
s                   x[bohr]                   y[bohr]                   z[bohr]                      q[e]
+        0.0000000000000000        1.8820644860925448       -0.8673158929876850        0.2314283515440728
+        0.0000000000000000        1.5105197233909244       -1.4688220247878798        0.1229317230114044
-       -0.3500000000000000        0.0044648786136100        0.1495916892224828       -0.3543600596543159
-        0.3500000000000000        0.0044648786136100        0.1495916892224828       -0.3543600596543159
+       -0.0000000000000000       -1.8820644860925448       -0.8673158929876850        0.2314283515440728
+        0.0000000000000000       -1.5105197233909244       -1.4688220247878798        0.1229317230114044
