6
s                      x[A]                      y[A]                      z[A]                      q[e]
N        0.0750060415909873        0.0815574002576602       -0.5010530656925015        0.5225510325000000
N       -0.4173301171108870        1.3879419079829272       -0.4420454661411368        0.0948963128000000
O       -0.5240987631813592       -0.0101504061732487       -0.2873815864725262       -0.6174473453000000
O        0.5240987631813592       -0.0101504061732487       -0.2873815864725262       -0.6174473453000000
N        0.0750060415909873       -0.0815574002576602       -0.5010530656925015        0.5225510325000000
N       -0.4173301171108870       -1.3879419079829272       -0.4420454661411368        0.0948963128000000

        RMSE         5.735729922E+00 kcal/mol
         MAE         4.727055405E+00 kcal/mol
     max. AE         2.512533898E+01 kcal/mol

Coordinates in bohr
s                   x[bohr]                   y[bohr]                   z[bohr]                      q[e]
+        0.1417408763616652        0.1541211499913215       -0.9468530684798576        0.5225510325000000
+       -0.7886396252448181        2.6228300841331222       -0.8353448660070899        0.0948963128000000
-       -0.9904031251039497       -0.0191814877295965       -0.5430724919326506       -0.6174473453000000
-        0.9904031251039497       -0.0191814877295965       -0.5430724919326506       -0.6174473453000000
+        0.1417408763616652       -0.1541211499913215       -0.9468530684798576        0.5225510325000000
+       -0.7886396252448181       -2.6228300841331222       -0.8353448660070899        0.0948963128000000
