6
s                      x[A]                      y[A]                      z[A]                      q[e]
N        0.0731395138035897        0.2054486115290715       -0.5012010650756167        0.5225510325000000
N       -0.3239837871967614        1.3671958753321380       -0.4490969286100608        0.0948963128000000
O       -0.4788585875877528        0.0270604830826177       -0.2297037286568182       -0.6174473453000000
O        0.4788585875877528        0.0270604830826177       -0.2297037286568182       -0.6174473453000000
N        0.0731395138035897       -0.2054486115290715       -0.5012010650756167        0.5225510325000000
N       -0.3239837871967614       -1.3671958753321380       -0.4490969286100608        0.0948963128000000

        RMSE         4.181328908E+00 kcal/mol
         MAE         3.243494852E+00 kcal/mol
     max. AE         2.501618761E+01 kcal/mol

Coordinates in bohr
s                   x[bohr]                   y[bohr]                   z[bohr]                      q[e]
+        0.1382136500379269        0.3882416086455227       -0.9471327467806818        0.5225510325000000
+       -0.6122406268904893        2.5836257642333251       -0.8486701988573011        0.0948963128000000
-       -0.9049115833644122        0.0511369018487322       -0.4340771371578653       -0.6174473453000000
-        0.9049115833644122        0.0511369018487322       -0.4340771371578653       -0.6174473453000000
+        0.1382136500379269       -0.3882416086455227       -0.9471327467806818        0.5225510325000000
+       -0.6122406268904893       -2.5836257642333251       -0.8486701988573011        0.0948963128000000
