6
s                      x[A]                      y[A]                      z[A]                      q[e]
N        0.0765010449049106        0.2462010924073649       -0.4151672450126431        0.5225510325000000
N       -0.2182067688797708        1.2176499081487795       -0.3955733418678113        0.0948963128000000
O       -0.4143253400983838        0.0811580937391019       -0.1942902183998566       -0.6174473453000000
O        0.4143253400983838        0.0811580937391019       -0.1942902183998566       -0.6174473453000000
N        0.0765010449049106       -0.2462010924073649       -0.4151672450126431        0.5225510325000000
N       -0.2182067688797708       -1.2176499081487795       -0.3955733418678113        0.0948963128000000

        RMSE         5.154969826E+00 kcal/mol
         MAE         4.009587158E+00 kcal/mol
     max. AE         1.812287518E+01 kcal/mol

Coordinates in bohr
s                   x[bohr]                   y[bohr]                   z[bohr]                      q[e]
+        0.1445660231816319        0.4652526364384544       -0.7845523893347429        0.5225510325000000
+       -0.4123510319038410        2.3010248430900733       -0.7475252786622639        0.0948963128000000
-       -0.7829614196231157        0.1533665700311363       -0.3671553016311163       -0.6174473453000000
-        0.7829614196231157        0.1533665700311363       -0.3671553016311163       -0.6174473453000000
+        0.1445660231816319       -0.4652526364384544       -0.7845523893347429        0.5225510325000000
+       -0.4123510319038410       -2.3010248430900733       -0.7475252786622639        0.0948963128000000
