3
s                      x[A]                      y[A]                      z[A]                      q[e]
N        0.0000000000000000        0.6672300197440110       -0.4938567485666202        0.3613484133133580
O        0.0000000000000000        0.0000000000000000        0.1234644517302604       -0.7226967968243936
N        0.0000000000000000       -0.6672300197440110       -0.4938567485666202        0.3613484133133580

        RMSE         1.903313110E+00 kcal/mol
         MAE         1.447050030E+00 kcal/mol
     max. AE         7.718114492E+00 kcal/mol

Coordinates in bohr
s                   x[bohr]                   y[bohr]                   z[bohr]                      q[e]
+        0.0000000000000000        1.2608820000000001       -0.9332540000000000        0.3613484133133580
-        0.0000000000000000        0.0000000000000000        0.2333140000000000       -0.7226967968243936
+        0.0000000000000000       -1.2608820000000001       -0.9332540000000000        0.3613484133133580
