6
s                      x[A]                      y[A]                      z[A]                      q[e]
N        1.0188734063789746       -0.3212259786200684        0.0000000000000000        0.2314283515440728
N        0.8630840205721143       -0.6613779471932656        0.0000000000000000        0.1229317230114044
O        0.0085141198956184        0.0630493654925909       -0.1852120237345000       -0.3543600596543159
O        0.0085141198956184        0.0630493654925909        0.1852120237345000       -0.3543600596543159
N       -1.0244648068537987       -0.4245273568076068        0.0000000000000000        0.2314283515440728
N       -0.8442333998672943       -0.7523845427742486        0.0000000000000000        0.1229317230114044

        RMSE         9.266510257E-01 kcal/mol
         MAE         6.806843068E-01 kcal/mol
     max. AE         5.967786011E+00 kcal/mol

Coordinates in bohr
s                   x[bohr]                   y[bohr]                   z[bohr]                      q[e]
+        1.9253916945685590       -0.6070291239741010        0.0000000000000000        0.2314283515440728
+        1.6309924221403060       -1.2498231856127819        0.0000000000000000        0.1229317230114044
-        0.0160893548020304        0.1191460331648884       -0.3500000000000000       -0.3543600596543159
-        0.0160893548020304        0.1191460331648884        0.3500000000000000       -0.3543600596543159
+       -1.9359579101237312       -0.8022404371308918        0.0000000000000000        0.2314283515440728
+       -1.5953699117133113       -1.4218007268711403        0.0000000000000000        0.1229317230114044
