6
s                      x[A]                      y[A]                      z[A]                      q[e]
N        0.0000000000000000        1.0519601442434998       -0.3685564954019092        0.2314283515440728
N        0.0000000000000000        0.8896961264278176       -0.7056678760709874        0.1229317230114044
O       -0.1852120237345000        0.0075705762972575        0.0627617140959209       -0.3543600596543159
O        0.1852120237345000        0.0075705762972575        0.0627617140959209       -0.3543600596543159
N       -0.0000000000000000       -1.0519601442434998       -0.3685564954019092        0.2314283515440728
N        0.0000000000000000       -0.8896961264278176       -0.7056678760709874        0.1229317230114044

        RMSE         9.127012283E-01 kcal/mol
         MAE         6.673462533E-01 kcal/mol
     max. AE         5.818498738E+00 kcal/mol

Coordinates in bohr
s                   x[bohr]                   y[bohr]                   z[bohr]                      q[e]
+        0.0000000000000000        1.9879165675173269       -0.6964708380681658        0.2314283515440728
+        0.0000000000000000        1.6812820138292777       -1.3335190213076817        0.1229317230114044
-       -0.3500000000000000        0.0143063158136992        0.1186024508055766       -0.3543600596543159
-        0.3500000000000000        0.0143063158136992        0.1186024508055766       -0.3543600596543159
+       -0.0000000000000000       -1.9879165675173269       -0.6964708380681658        0.2314283515440728
+        0.0000000000000000       -1.6812820138292777       -1.3335190213076817        0.1229317230114044
