6
s                      x[A]                      y[A]                      z[A]                      q[e]
N        0.5817270174477577       -0.1663029591265361        0.0000000000000000        0.5225510325000000
N        1.0845947897044430       -0.7815615723888851        0.0000000000000000        0.0948963129000000
O        0.0001002107926667        0.1333849791117996       -0.3455139784000000       -0.6174473453000000
O        0.0001002107926667        0.1333849791117996        0.3455139784000000       -0.6174473453000000
N       -0.5585325645587388       -0.0968493827036684        0.0000000000000000        0.5225510325000000
N       -1.1034851764712528       -0.6751622810015009        0.0000000000000000        0.0948963129000000

        RMSE         1.279080589E+00 kcal/mol
         MAE         1.019046138E+00 kcal/mol
     max. AE         4.879444943E+00 kcal/mol

Coordinates in bohr
s                   x[bohr]                   y[bohr]                   z[bohr]                      q[e]
+        1.0993047427556895       -0.3142670466023605        0.0000000000000000        0.5225510325000000
+        2.0495871096399250       -1.4769373219971758        0.0000000000000000        0.0948963129000000
-        0.0001893709529551        0.2520610797712143       -0.6529267916933517       -0.6174473453000000
-        0.0001893709529551        0.2520610797712143        0.6529267916933517       -0.6174473453000000
+       -1.0554735791656098       -0.1830188087295856        0.0000000000000000        0.5225510325000000
+       -2.0852847670331682       -1.2758718013322357        0.0000000000000000        0.0948963129000000
