6
s                      x[A]                      y[A]                      z[A]                      q[e]
N        0.0000000000000000        0.9190895162941082       -0.4077817537005319        0.2314283515440728
N        0.0000000000000000        0.7224765406139481       -0.7260851188233229        0.1229317230114044
O       -0.1852120237345000        0.0023627191479831        0.0663650082257968       -0.3543600596543159
O        0.1852120237345000        0.0023627191479831        0.0663650082257968       -0.3543600596543159
N        0.0000000000000000       -0.9190895162941082       -0.4077817537005319        0.2314283515440728
N        0.0000000000000000       -0.7224765406139481       -0.7260851188233229        0.1229317230114044

        RMSE         8.284363259E-01 kcal/mol
         MAE         5.691565207E-01 kcal/mol
     max. AE         5.222652077E+00 kcal/mol

Coordinates in bohr
s                   x[bohr]                   y[bohr]                   z[bohr]                      q[e]
+        0.0000000000000000        1.7368274705753746       -0.7705958334529046        0.2314283515440728
+        0.0000000000000000        1.3652827938285712       -1.3721020183465849        0.1229317230114044
-       -0.3500000000000000        0.0044648921010631        0.1254116898605119       -0.3543600596543159
-        0.3500000000000000        0.0044648921010631        0.1254116898605119       -0.3543600596543159
+        0.0000000000000000       -1.7368274705753746       -0.7705958334529046        0.2314283515440728
+        0.0000000000000000       -1.3652827938285712       -1.3721020183465849        0.1229317230114044
