3
s                      x[A]                      y[A]                      z[A]                      q[e]
N        0.7739163788327683       -0.3643755519510419        0.0000000000000000        0.3379860774420776
O        0.0000000000000000        0.1124199941663668        0.0000000000000000       -0.6759721250818329
N       -0.7739163788327683       -0.5349854597343140        0.0000000000000000        0.3379860774420776

        RMSE         2.319775485E+00 kcal/mol
         MAE         1.741590923E+00 kcal/mol
     max. AE         1.112511030E+01 kcal/mol

Coordinates in bohr
s                   x[bohr]                   y[bohr]                   z[bohr]                      q[e]
+        1.4624900000000001       -0.6885700000000000        0.0000000000000000        0.3379860774420776
-        0.0000000000000000        0.2124430000000000        0.0000000000000000       -0.6759721250818329
+       -1.4624900000000001       -1.0109760000000001        0.0000000000000000        0.3379860774420776
