3
s                      x[A]                      y[A]                      z[A]                      q[e]
N        0.0000000000000000        0.7406327198132574       -0.5481863144316877        0.3613484133133580
O        0.0000000000000000        0.0000000000000000        0.1370468431965273       -0.7226967968243936
N        0.0000000000000000       -0.7406327198132574       -0.5481863144316877        0.3613484133133580

        RMSE         2.288645487E+00 kcal/mol
         MAE         1.805567714E+00 kcal/mol
     max. AE         8.202135947E+00 kcal/mol

Coordinates in bohr
s                   x[bohr]                   y[bohr]                   z[bohr]                      q[e]
+        0.0000000000000000        1.3995930000000001       -1.0359220000000000        0.3613484133133580
-        0.0000000000000000        0.0000000000000000        0.2589810000000000       -0.7226967968243936
+        0.0000000000000000       -1.3995930000000001       -1.0359220000000000        0.3613484133133580
