6
s                      x[A]                      y[A]                      z[A]                      q[e]
N        0.9407344436896385       -0.3586748171768626        0.0000000000000000        0.2314283515440728
N        0.7579629343802002       -0.6851227760294950        0.0000000000000000        0.1229317230114044
O        0.0045040285024160        0.0756925892287384       -0.1852120237345000       -0.3543600596543159
O        0.0045040285024160        0.0756925892287384        0.1852120237345000       -0.3543600596543159
N       -0.9472042007331865       -0.5382396193682002        0.0000000000000000        0.2314283515440728
N       -0.7264363931707969       -0.8402913857897787        0.0000000000000000        0.1229317230114044

        RMSE         9.487181010E-01 kcal/mol
         MAE         6.623823964E-01 kcal/mol
     max. AE         6.571332939E+00 kcal/mol

Coordinates in bohr
s                   x[bohr]                   y[bohr]                   z[bohr]                      q[e]
+        1.7777304553583462       -0.6777971725629275        0.0000000000000000        0.2314283515440728
+        1.4323423592269418       -1.2946944090091290        0.0000000000000000        0.1229317230114044
-        0.0085113803308223        0.1430382633690948       -0.3500000000000000       -0.3543600596543159
-        0.0085113803308223        0.1430382633690948        0.3500000000000000       -0.3543600596543159
+       -1.7899565242689033       -1.0171254704765651        0.0000000000000000        0.2314283515440728
+       -1.3727658306582096       -1.5879205847241076        0.0000000000000000        0.1229317230114044
