3
s                      x[A]                      y[A]                      z[A]                      q[e]
N        0.6895549479077568       -0.4593903784812617        0.0000000000000000        0.3379860774420776
O        0.0000000000000000        0.1328890978522931        0.0000000000000000       -0.6759721250818329
N       -0.6895549479077568       -0.6037213459826616        0.0000000000000000        0.3379860774420776

        RMSE         2.198628710E+00 kcal/mol
         MAE         1.703465153E+00 kcal/mol
     max. AE         1.008511213E+01 kcal/mol

Coordinates in bohr
s                   x[bohr]                   y[bohr]                   z[bohr]                      q[e]
+        1.3030700000000000       -0.8681219999999999        0.0000000000000000        0.3379860774420776
-        0.0000000000000000        0.2511240000000000        0.0000000000000000       -0.6759721250818329
+       -1.3030700000000000       -1.1408680000000000        0.0000000000000000        0.3379860774420776
