6
s                      x[A]                      y[A]                      z[A]                      q[e]
N        0.0000000000000000        1.0833795527423136       -0.2678049787057562        0.1979110689179275
N        0.0000000000000000        0.8473817455036390       -0.8102511512612940        0.1054997195048966
O       -0.2910474658684998        0.0032932005130404        0.1122896780664543       -0.3034107735216629
O        0.2910474658684998        0.0032932005130404        0.1122896780664543       -0.3034107735216629
N       -0.0000000000000000       -1.0833795527423136       -0.2678049787057562        0.1979110689179275
N        0.0000000000000000       -0.8473817455036390       -0.8102511512612940        0.1054997195048966

        RMSE         9.586566051E-01 kcal/mol
         MAE         7.593457975E-01 kcal/mol
     max. AE         3.887457037E+00 kcal/mol

Coordinates in bohr
s                   x[bohr]                   y[bohr]                   z[bohr]                      q[e]
+        0.0000000000000000        2.0472906446039669       -0.5060780647879448        0.1979110689179275
+        0.0000000000000000        1.6013194227142831       -1.5311527687207498        0.1054997195048966
-       -0.5499999999999997        0.0062232470458635        0.2121967382614276       -0.3034107735216629
-        0.5499999999999997        0.0062232470458635        0.2121967382614276       -0.3034107735216629
+       -0.0000000000000000       -2.0472906446039669       -0.5060780647879448        0.1979110689179275
+        0.0000000000000000       -1.6013194227142831       -1.5311527687207498        0.1054997195048966
