6
s                      x[A]                      y[A]                      z[A]                      q[e]
N        0.5152960319394518       -0.2441978341174960        0.0000000000000000        0.5225510325000000
N        0.8878400429691138       -0.9460739751949953       -0.0000000000000000        0.0948963129000000
O        0.0036773948810225        0.1636611483534633       -0.3455139784000000       -0.6174473453000000
O        0.0036773948810225        0.1636611483534633        0.3455139784000000       -0.6174473453000000
N       -0.4982754945645311       -0.1837921412419097        0.0000000000000000        0.5225510325000000
N       -0.9027732738065599       -0.8677517191090358        0.0000000000000000        0.0948963129000000

        RMSE         3.624029861E+00 kcal/mol
         MAE         2.976064081E+00 kcal/mol
     max. AE         1.487154761E+01 kcal/mol

Coordinates in bohr
s                   x[bohr]                   y[bohr]                   z[bohr]                      q[e]
+        0.9737683739007337       -0.4614670269120492        0.0000000000000000        0.5225510325000000
+        1.6777745244263351       -1.7878207075417238       -0.0000000000000000        0.0948963129000000
-        0.0069492691802932        0.3092747477659691       -0.6529267916933517       -0.6174473453000000
-        0.0069492691802932        0.3092747477659691        0.6529267916933517       -0.6174473453000000
+       -0.9416042197540144       -0.3473168109586718        0.0000000000000000        0.5225510325000000
+       -1.7059942408773494       -1.6398130940112878        0.0000000000000000        0.0948963129000000
