6
s                      x[A]                      y[A]                      z[A]                      q[e]
N        0.0000000000000000        0.5768252787841360       -0.1649585860914910        0.5225510325000000
N       -0.0000000000000000        1.0690897616842328       -0.7887332540950986        0.0948963129000000
O       -0.3455139784000000        0.0004127613572235        0.1446393635783496       -0.6174473453000000
O        0.3455139784000000        0.0004127613572235        0.1446393635783496       -0.6174473453000000
N        0.0000000000000000       -0.5768252787841360       -0.1649585860914910        0.5225510325000000
N        0.0000000000000000       -1.0690897616842328       -0.7887332540950986        0.0948963129000000

        RMSE         9.197389332E-01 kcal/mol
         MAE         7.110595369E-01 kcal/mol
     max. AE         3.791660747E+00 kcal/mol

Coordinates in bohr
s                   x[bohr]                   y[bohr]                   z[bohr]                      q[e]
+        0.0000000000000000        1.0900417991428770       -0.3117265497556749        0.5225510325000000
+       -0.0000000000000000        2.0202868531141780       -1.4904898362808754        0.0948963129000000
-       -0.6529267916933517        0.0007800059203247        0.2733287841236007       -0.6174473453000000
-        0.6529267916933517        0.0007800059203247        0.2733287841236007       -0.6174473453000000
+        0.0000000000000000       -1.0900417991428770       -0.3117265497556749        0.5225510325000000
+        0.0000000000000000       -2.0202868531141780       -1.4904898362808754        0.0948963129000000
