6
s                      x[A]                      y[A]                      z[A]                      q[e]
N        0.5348332377103001       -0.0301315256086997        0.0000000000000000        0.5225510325000000
N        1.1431725806608553       -0.5413481151149454        0.0000000000000000        0.0948963129000000
O       -0.0032918296033698        0.1108300135733787       -0.3455139784000000       -0.6174473453000000
O       -0.0032918296033698        0.1108300135733787        0.3455139784000000       -0.6174473453000000
N       -0.5632047993995681       -0.1063593908433942        0.0000000000000000        0.5225510325000000
N       -1.1211575078355942       -0.6721402076945959        0.0000000000000000        0.0948963129000000

        RMSE         2.321767362E+00 kcal/mol
         MAE         1.923906095E+00 kcal/mol
     max. AE         8.633676963E+00 kcal/mol

Coordinates in bohr
s                   x[bohr]                   y[bohr]                   z[bohr]                      q[e]
+        1.0106883420643511       -0.0569403311426615        0.0000000000000000        0.5225510325000000
+        2.1602830915818645       -1.0229996761000641        0.0000000000000000        0.0948963129000000
-       -0.0062206564020435        0.2094383721344595       -0.6529267916933517       -0.6174473453000000
-       -0.0062206564020435        0.2094383721344595        0.6529267916933517       -0.6174473453000000
+       -1.0643028234085992       -0.2009901195645420        0.0000000000000000        0.5225510325000000
+       -2.1186806333101122       -1.2701609104511287        0.0000000000000000        0.0948963129000000
