6
s                      x[A]                      y[A]                      z[A]                      q[e]
N        0.0317197614950551       -0.5440929221745510        0.0778747903672862        0.5225510325000000
N        1.4480523368917215       -0.5492901610765488       -0.4911295641919780        0.0948963128000000
O       -0.0586021734256058       -0.3234215741910737       -0.5568774246830801       -0.6174473453000000
O       -0.0586021734256058       -0.3234215741910737        0.5568774246830801       -0.6174473453000000
N       -0.0318265424775131       -0.5089617995697042        0.0778747903672862        0.5225510325000000
N       -1.4461651000997888       -0.4336529697759844       -0.4911295641919780        0.0948963128000000

        RMSE         7.063127155E+00 kcal/mol
         MAE         5.852713298E+00 kcal/mol
     max. AE         3.351203406E+01 kcal/mol

Coordinates in bohr
s                   x[bohr]                   y[bohr]                   z[bohr]                      q[e]
+        0.0599416619904969       -1.0281866097099419        0.1471620258716124        0.5225510325000000
+        2.7364223320545467       -1.0380079678432930       -0.9281003684382984        0.0948963128000000
-       -0.1107420581309777       -0.6111781982855692       -1.0523458181012906       -0.6174473453000000
-       -0.1107420581309777       -0.6111781982855692        1.0523458181012906       -0.6174473453000000
+       -0.0601434488027499       -0.9617984095069009        0.1471620258716124        0.5225510325000000
+       -2.7328559713839060       -0.8194853463680517       -0.9281003684382984        0.0948963128000000
