3
s                      x[A]                      y[A]                      z[A]                      q[e]
N        0.0000000000000000        0.6108879929467654       -0.5384997255903734        0.3379860774420776
O        0.0000000000000000        0.0000000000000000        0.1346247991032907       -0.6759721250818329
N        0.0000000000000000       -0.6108879929467654       -0.5384997255903734        0.3379860774420776

        RMSE         1.951247488E+00 kcal/mol
         MAE         1.508120794E+00 kcal/mol
     max. AE         7.281304691E+00 kcal/mol

Coordinates in bohr
s                   x[bohr]                   y[bohr]                   z[bohr]                      q[e]
+        0.0000000000000000        1.1544110000000001       -1.0176170000000000        0.3379860774420776
-        0.0000000000000000        0.0000000000000000        0.2544040000000000       -0.6759721250818329
+        0.0000000000000000       -1.1544110000000001       -1.0176170000000000        0.3379860774420776
