3
s                      x[A]                      y[A]                      z[A]                      q[e]
N        0.8527029278433713       -0.3410118489227507        0.0000000000000000        0.3379860774420776
O        0.0000000000000000        0.0978263450505095        0.0000000000000000       -0.6759721250818329
N       -0.8527029278433713       -0.4415983823041150        0.0000000000000000        0.3379860774420776

        RMSE         2.637034879E+00 kcal/mol
         MAE         2.013080988E+00 kcal/mol
     max. AE         1.039228857E+01 kcal/mol

Coordinates in bohr
s                   x[bohr]                   y[bohr]                   z[bohr]                      q[e]
+        1.6113750000000000       -0.6444190000000000        0.0000000000000000        0.3379860774420776
-        0.0000000000000000        0.1848650000000000        0.0000000000000000       -0.6759721250818329
+       -1.6113750000000000       -0.8345000000000000        0.0000000000000000        0.3379860774420776
