6
s                      x[A]                      y[A]                      z[A]                      q[e]
N        0.0000000000000000        0.9713835491513328       -0.4687849478003720        0.1979110689179275
N       -0.0000000000000000        0.6194105283190217       -0.9442403166288166        0.1054997195048966
O       -0.2910474658684998        0.0044823626318667        0.1445344914906015       -0.3034107735216629
O        0.2910474658684998        0.0044823626318667        0.1445344914906015       -0.3034107735216629
N       -0.0000000000000000       -0.9713835491513328       -0.4687849478003720        0.1979110689179275
N        0.0000000000000000       -0.6194105283190217       -0.9442403166288166        0.1054997195048966

        RMSE         1.298559732E+00 kcal/mol
         MAE         9.359896227E-01 kcal/mol
     max. AE         6.369175701E+00 kcal/mol

Coordinates in bohr
s                   x[bohr]                   y[bohr]                   z[bohr]                      q[e]
+        0.0000000000000000        1.8356488706712220       -0.8858751630797472        0.1979110689179275
+       -0.0000000000000000        1.1705162577480912       -1.7843555950440464        0.1054997195048966
-       -0.5499999999999997        0.0084704377692144        0.2731306045995517       -0.3034107735216629
-        0.5499999999999997        0.0084704377692144        0.2731306045995517       -0.3034107735216629
+       -0.0000000000000000       -1.8356488706712220       -0.8858751630797472        0.1979110689179275
+        0.0000000000000000       -1.1705162577480912       -1.7843555950440464        0.1054997195048966
