6
s                      x[A]                      y[A]                      z[A]                      q[e]
N        0.5946018365425281       -0.1464715103388461        0.0000000000000000        0.5225510325000000
N        1.1265083216747196       -0.7368058636016631       -0.0000000000000000        0.0948963129000000
O       -0.0007792105546882        0.1248663340287450       -0.3455139784000000       -0.6174473453000000
O       -0.0007792105546882        0.1248663340287450        0.3455139784000000       -0.6174473453000000
N       -0.5696214529442357       -0.0734417105734490        0.0000000000000000        0.5225510325000000
N       -1.1463920368261125       -0.6200264259986693        0.0000000000000000        0.0948963129000000

        RMSE         9.484317465E-01 kcal/mol
         MAE         7.095142292E-01 kcal/mol
     max. AE         4.340442787E+00 kcal/mol

Coordinates in bohr
s                   x[bohr]                   y[bohr]                   z[bohr]                      q[e]
+        1.1236346247596205       -0.2767910397225838        0.0000000000000000        0.5225510325000000
+        2.1287922060143685       -1.3923612898385798       -0.0000000000000000        0.0948963129000000
-       -0.0014724945424268        0.2359631736042633       -0.6529267916933517       -0.6174473453000000
-       -0.0014724945424268        0.2359631736042633        0.6529267916933517       -0.6174473453000000
+       -1.0764285412499692       -0.1387847191689590        0.0000000000000000        0.5225510325000000
+       -2.1663669820071174       -1.1716801356839301        0.0000000000000000        0.0948963129000000
