6
s                      x[A]                      y[A]                      z[A]                      q[e]
N        0.0000000000000000        0.4672726800996477       -0.1575249736283688        0.5225510325000000
N        0.0000000000000000        0.8798486633635438       -0.8366422062191343        0.0948963129000000
O       -0.3455139784000000        0.0026349207636538        0.1483519365345466       -0.6174473453000000
O        0.3455139784000000        0.0026349207636538        0.1483519365345466       -0.6174473453000000
N        0.0000000000000000       -0.4672726800996477       -0.1575249736283688        0.5225510325000000
N        0.0000000000000000       -0.8798486633635438       -0.8366422062191343        0.0948963129000000

        RMSE         1.322476947E+00 kcal/mol
         MAE         1.020679985E+00 kcal/mol
     max. AE         5.280584797E+00 kcal/mol

Coordinates in bohr
s                   x[bohr]                   y[bohr]                   z[bohr]                      q[e]
+        0.0000000000000000        0.8830173912970025       -0.2976790580775840        0.5225510325000000
+        0.0000000000000000        1.6626730056072387       -1.5810246347529739        0.0948963129000000
-       -0.6529267916933517        0.0049792786055878        0.2803445302315943       -0.6174473453000000
-        0.6529267916933517        0.0049792786055878        0.2803445302315943       -0.6174473453000000
+        0.0000000000000000       -0.8830173912970025       -0.2976790580775840        0.5225510325000000
+        0.0000000000000000       -1.6626730056072387       -1.5810246347529739        0.0948963129000000
