6
s                      x[A]                      y[A]                      z[A]                      q[e]
N        0.0782275920541508       -0.0234666131837639       -0.5276031169896467        0.5225510325000000
N       -0.4988982508025935        1.3998862583768541       -0.6373433164754494        0.0948963128000000
O       -0.5602249950621193       -0.0950120347304756       -0.3045535663552608       -0.6174473453000000
O        0.5602249950621193       -0.0950120347304756       -0.3045535663552608       -0.6174473453000000
N        0.0782275920541508        0.0234666131837639       -0.5276031169896467        0.5225510325000000
N       -0.4988982508025935       -1.3998862583768541       -0.6373433164754494        0.0948963128000000

        RMSE         7.188734135E+00 kcal/mol
         MAE         5.906025193E+00 kcal/mol
     max. AE         3.559510752E+01 kcal/mol

Coordinates in bohr
s                   x[bohr]                   y[bohr]                   z[bohr]                      q[e]
+        0.1478287244363860       -0.0443454720093718       -0.9970253940483182        0.5225510325000000
+       -0.9427810584868729        2.6454016351241485       -1.2044043160295934        0.0948963128000000
-       -1.0586718093033696       -0.1795467242630862       -0.5755228309428906       -0.6174473453000000
-        1.0586718093033696       -0.1795467242630862       -0.5755228309428906       -0.6174473453000000
+        0.1478287244363860        0.0443454720093718       -0.9970253940483182        0.5225510325000000
+       -0.9427810584868729       -2.6454016351241485       -1.2044043160295934        0.0948963128000000
