6
s                      x[A]                      y[A]                      z[A]                      q[e]
N        0.5206697635784411       -0.0668077230946136        0.0000000000000000        0.5225510325000000
N        1.0774969171464213       -0.6336963176326333        0.0000000000000000        0.0948963129000000
O       -0.0015640259085415        0.1248179893990204       -0.3455139784000000       -0.6174473453000000
O       -0.0015640259085415        0.1248179893990204        0.3455139784000000       -0.6174473453000000
N       -0.5457147508014951       -0.1364535095721149        0.0000000000000000        0.5225510325000000
N       -1.0572496312253101       -0.7445252353394815        0.0000000000000000        0.0948963129000000

        RMSE         8.403569510E-01 kcal/mol
         MAE         6.815893610E-01 kcal/mol
     max. AE         2.917095531E+00 kcal/mol

Coordinates in bohr
s                   x[bohr]                   y[bohr]                   z[bohr]                      q[e]
+        0.9839232549701309       -0.1262482997142436        0.0000000000000000        0.5225510325000000
+        2.0361740744318610       -1.1975124870368095        0.0000000000000000        0.0948963129000000
-       -0.0029555806202638        0.2358718154944471       -0.6529267916933517       -0.6174473453000000
-       -0.0029555806202638        0.2358718154944471        0.6529267916933517       -0.6174473453000000
+       -1.0312514216372937       -0.2578597619488354        0.0000000000000000        0.5225510325000000
+       -1.9979122492571231       -1.4069487882836560        0.0000000000000000        0.0948963129000000
