6
s                      x[A]                      y[A]                      z[A]                      q[e]
N        0.0000000000000000        1.0222489319932491       -0.2918468638031091        0.1979110689179275
N        0.0000000000000000        0.7581851555495724       -0.8211984833452798        0.1054997195048966
O       -0.2910474658684998        0.0035849883556609        0.1143204690189299       -0.3034107735216629
O        0.2910474658684998        0.0035849883556609        0.1143204690189299       -0.3034107735216629
N        0.0000000000000000       -1.0222489319932491       -0.2918468638031091        0.1979110689179275
N        0.0000000000000000       -0.7581851555495724       -0.8211984833452798        0.1054997195048966

        RMSE         8.947215771E-01 kcal/mol
         MAE         7.101369979E-01 kcal/mol
     max. AE         4.404434442E+00 kcal/mol

Coordinates in bohr
s                   x[bohr]                   y[bohr]                   z[bohr]                      q[e]
+        0.0000000000000000        1.9317705135090053       -0.5515106431616679        0.1979110689179275
+        0.0000000000000000        1.4327622963763342       -1.5518402281639203        0.1054997195048966
-       -0.5499999999999997        0.0067746461551545        0.2160343769796641       -0.3034107735216629
-        0.5499999999999997        0.0067746461551545        0.2160343769796641       -0.3034107735216629
+        0.0000000000000000       -1.9317705135090053       -0.5515106431616679        0.1979110689179275
+        0.0000000000000000       -1.4327622963763342       -1.5518402281639203        0.1054997195048966
