6
s                      x[A]                      y[A]                      z[A]                      q[e]
N       -0.0366446825703467       -0.5009369334557811        0.0788556101388603        0.5225510325000000
N        1.4095572332041812       -0.5451576994945838       -0.5122960576597705        0.0948963128000000
O       -0.0790988610740615       -0.3232264050794015       -0.5659595293281839       -0.6174473453000000
O       -0.0790988610740615       -0.3232264050794015        0.5659595293281839       -0.6174473453000000
N        0.0339961498448940       -0.5356940723636227        0.0788556101388603        0.5225510325000000
N       -1.4084466907511914       -0.6488934935285270       -0.5122960576597705        0.0948963128000000

        RMSE         7.629954100E+00 kcal/mol
         MAE         6.324430850E+00 kcal/mol
     max. AE         3.682663182E+01 kcal/mol

Coordinates in bohr
s                   x[bohr]                   y[bohr]                   z[bohr]                      q[e]
+       -0.0692484140122933       -0.9466336103581190        0.1490155066183216        0.5225510325000000
+        2.6636771289139936       -1.0301987472294030       -0.9680992441287183        0.0948963128000000
-       -0.1494751842656132       -0.6108093821163598       -1.0695085085232852       -0.6174473453000000
-       -0.1494751842656132       -0.6108093821163598        1.0695085085232852       -0.6174473453000000
+        0.0642434125268753       -1.0123150837984340        0.1490155066183216        0.5225510325000000
+       -2.6615785078271488       -1.2262309873604575       -0.9680992441287183        0.0948963128000000
