6
s                      x[A]                      y[A]                      z[A]                      q[e]
N        1.0675400076648407       -0.3135259744562526        0.0000000000000000        0.1979110689179275
N        0.8100389450381849       -0.8461008686145841       -0.0000000000000000        0.1054997195048966
O        0.0035169667175148        0.1094567697027792       -0.2910474658684998       -0.3034107735216629
O        0.0035169667175148        0.1094567697027792        0.2910474658684998       -0.3034107735216629
N       -1.0548469081662475       -0.2007665325516604        0.0000000000000000        0.1979110689179275
N       -0.8407298351411469       -0.7522161623282873        0.0000000000000000        0.1054997195048966

        RMSE         1.058428283E+00 kcal/mol
         MAE         8.613044492E-01 kcal/mol
     max. AE         4.106742211E+00 kcal/mol

Coordinates in bohr
s                   x[bohr]                   y[bohr]                   z[bohr]                      q[e]
+        2.0173582424556997       -0.5924782249396043        0.0000000000000000        0.1979110689179275
+        1.5307517570769558       -1.5988989161935410       -0.0000000000000000        0.1054997195048966
-        0.0066461038884533        0.2068433173155627       -0.5499999999999997       -0.3034107735216629
-        0.0066461038884533        0.2068433173155627        0.5499999999999997       -0.3034107735216629
+       -1.9933717607201722       -0.3793937616804521        0.0000000000000000        0.1979110689179275
+       -1.5887491339180781       -1.4214825339433910        0.0000000000000000        0.1054997195048966
