3
s                      x[A]                      y[A]                      z[A]                      q[e]
N        0.7215437102927584       -0.4980070854299050        0.0000000000000000        0.3379860774420776
O        0.0000000000000000        0.1337013848706715        0.0000000000000000       -0.6759721250818329
N       -0.7215437102927584       -0.5716039935354673        0.0000000000000000        0.3379860774420776

        RMSE         2.281144745E+00 kcal/mol
         MAE         1.788633896E+00 kcal/mol
     max. AE         9.736921321E+00 kcal/mol

Coordinates in bohr
s                   x[bohr]                   y[bohr]                   z[bohr]                      q[e]
+        1.3635200000000001       -0.9410970000000000        0.0000000000000000        0.3379860774420776
-        0.0000000000000000        0.2526590000000000        0.0000000000000000       -0.6759721250818329
+       -1.3635200000000001       -1.0801750000000001        0.0000000000000000        0.3379860774420776
