3
s                      x[A]                      y[A]                      z[A]                      q[e]
N        0.0000000000000000        0.8287909972248260       -0.4603905234094280        0.3613484133133580
O        0.0000000000000000        0.0000000000000000        0.1150976308523570       -0.7226967968243936
N        0.0000000000000000       -0.8287909972248260       -0.4603905234094280        0.3613484133133580

        RMSE         2.351196498E+00 kcal/mol
         MAE         1.789546366E+00 kcal/mol
     max. AE         9.877833897E+00 kcal/mol

Coordinates in bohr
s                   x[bohr]                   y[bohr]                   z[bohr]                      q[e]
+        0.0000000000000000        1.5661879999999999       -0.8700120000000000        0.3613484133133580
-        0.0000000000000000        0.0000000000000000        0.2175030000000000       -0.7226967968243936
+        0.0000000000000000       -1.5661879999999999       -0.8700120000000000        0.3613484133133580
