6
s                      x[A]                      y[A]                      z[A]                      q[e]
N       -0.0385004084112386       -0.5160649874625103        0.0790939108716798        0.5225510325000000
N        1.4149145697299839       -0.5570417764434848       -0.5172507595521498        0.0948963128000000
O       -0.0799072558851227       -0.3408283287542956       -0.5680683731801179       -0.6174473453000000
O       -0.0799072558851227       -0.3408283287542956        0.5680683731801179       -0.6174473453000000
N        0.0394661289521659       -0.4836380772486592        0.0790939108716798        0.5225510325000000
N       -1.4139697049301709       -0.4434078310749415       -0.5172507595521498        0.0948963128000000

        RMSE         8.672079203E+00 kcal/mol
         MAE         7.235677399E+00 kcal/mol
     max. AE         3.855238772E+01 kcal/mol

Coordinates in bohr
s                   x[bohr]                   y[bohr]                   z[bohr]                      q[e]
+       -0.0727552276155139       -0.9752214892419723        0.1494658297388462        0.5225510325000000
+        2.6738010277096724       -1.0526563979166923       -0.9774622737386028        0.0948963128000000
-       -0.1510028290597602       -0.6440721971431219       -1.0734936458447959       -0.6174473453000000
-       -0.1510028290597602       -0.6440721971431219        1.0734936458447959       -0.6174473453000000
+        0.0745801749515954       -0.9139435098429826        0.1494658297388462        0.5225510325000000
+       -2.6720154920124406       -0.8379193626149084       -0.9774622737386028        0.0948963128000000
