6
s                      x[A]                      y[A]                      z[A]                      q[e]
N        0.9916659490822017       -0.2590758191442374        0.0000000000000000        0.2314283515440728
N        0.8490406224981192       -0.6049539923079742        0.0000000000000000        0.1229317230114044
O        0.0103980796461662        0.0607933689001947       -0.1852120237345000       -0.3543600596543159
O        0.0103980796461662        0.0607933689001947        0.1852120237345000       -0.3543600596543159
N       -1.0031157076864943       -0.4660527183100237        0.0000000000000000        0.2314283515440728
N       -0.8104393928214069       -0.7867543431021499        0.0000000000000000        0.1229317230114044

        RMSE         1.026844113E+00 kcal/mol
         MAE         7.833830404E-01 kcal/mol
     max. AE         6.007615429E+00 kcal/mol

Coordinates in bohr
s                   x[bohr]                   y[bohr]                   z[bohr]                      q[e]
+        1.8739770517075689       -0.4895823439112529        0.0000000000000000        0.2314283515440728
+        1.6044542459096733       -1.1431973639643929        0.0000000000000000        0.1229317230114044
-        0.0196495227619515        0.1148828174652934       -0.3500000000000000       -0.3543600596543159
-        0.0196495227619515        0.1148828174652934        0.3500000000000000       -0.3543600596543159
+       -1.8956139596722861       -0.8807119976310896        0.0000000000000000        0.2314283515440728
+       -1.5315084937147920       -1.4867502364775445        0.0000000000000000        0.1229317230114044
