6
s                      x[A]                      y[A]                      z[A]                      q[e]
N        0.0000000000000000        1.0941425827571845       -0.3561066306529922        0.1979110689179275
N       -0.0000000000000000        0.8208805438057992       -0.8807690680446417        0.1054997195048966
O       -0.2910474658684998        0.0036801064803175        0.1290332826043358       -0.3034107735216629
O        0.2910474658684998        0.0036801064803175        0.1290332826043358       -0.3034107735216629
N       -0.0000000000000000       -1.0941425827571845       -0.3561066306529922        0.1979110689179275
N        0.0000000000000000       -0.8208805438057992       -0.8807690680446417        0.1054997195048966

        RMSE         8.298433857E-01 kcal/mol
         MAE         5.623460790E-01 kcal/mol
     max. AE         5.262186843E+00 kcal/mol

Coordinates in bohr
s                   x[bohr]                   y[bohr]                   z[bohr]                      q[e]
+        0.0000000000000000        2.0676298236121551       -0.6729440033937208        0.1979110689179275
+       -0.0000000000000000        1.5512394095098478       -1.6644123183791031        0.1054997195048966
-       -0.5499999999999997        0.0069543933603226        0.2438375651909965       -0.3034107735216629
-        0.5499999999999997        0.0069543933603226        0.2438375651909965       -0.3034107735216629
+       -0.0000000000000000       -2.0676298236121551       -0.6729440033937208        0.1979110689179275
+        0.0000000000000000       -1.5512394095098478       -1.6644123183791031        0.1054997195048966
