6
s                      x[A]                      y[A]                      z[A]                      q[e]
N        0.5340736893109700       -0.2251716134860057        0.0000000000000000        0.5225510325000000
N        0.9411027667664992       -0.9076278301575303        0.0000000000000000        0.0948963129000000
O        0.0027820837168374        0.1567072726549988       -0.3455139784000000       -0.6174473453000000
O        0.0027820837168374        0.1567072726549988        0.3455139784000000       -0.6174473453000000
N       -0.5156107216251057       -0.1630646023548636        0.0000000000000000        0.5225510325000000
N       -0.9570346244769903       -0.8237945740974206        0.0000000000000000        0.0948963129000000

        RMSE         1.786347994E+00 kcal/mol
         MAE         1.384650463E+00 kcal/mol
     max. AE         7.279638263E+00 kcal/mol

Coordinates in bohr
s                   x[bohr]                   y[bohr]                   z[bohr]                      q[e]
+        1.0092530036105871       -0.4255126807159971        0.0000000000000000        0.5225510325000000
+        1.7784264850992986       -1.7151680228412856        0.0000000000000000        0.0948963129000000
-        0.0052573762829184        0.2961338271853943       -0.6529267916933517       -0.6174473453000000
-        0.0052573762829184        0.2961338271853943        0.6529267916933517       -0.6174473453000000
+       -0.9743630512211258       -0.3081474392073777        0.0000000000000000        0.5225510325000000
+       -1.8085333328418904       -1.5567461286823003        0.0000000000000000        0.0948963129000000
