6
s                      x[A]                      y[A]                      z[A]                      q[e]
N       -0.0069545457700345       -0.4811950848969681        0.0786020920971724        0.5225510325000000
N        1.4287410778184215       -0.3810103480788062       -0.5069496230243932        0.0948963128000000
O       -0.0302783383825301       -0.3380868511157199       -0.5636768603280292       -0.6174473453000000
O       -0.0302783383825301       -0.3380868511157199        0.5636768603280292       -0.6174473453000000
N        0.0061641339410810       -0.5484754887976528        0.0786020920971724        0.5225510325000000
N       -1.4316975104215346       -0.6102233369642472       -0.5069496230243932        0.0948963128000000

        RMSE         7.559567753E+00 kcal/mol
         MAE         6.364420627E+00 kcal/mol
     max. AE         3.455724038E+01 kcal/mol

Coordinates in bohr
s                   x[bohr]                   y[bohr]                   z[bohr]                      q[e]
+       -0.0131421868323264       -0.9093269233716981        0.1485364269516689        0.5225510325000000
+        2.6999293412682470       -0.7200052088343010       -0.9579959469201932        0.0948963128000000
-       -0.0572177670769196       -0.6388915552271470       -1.0651948892779199       -0.6174473453000000
-       -0.0572177670769196       -0.6388915552271470        1.0651948892779199       -0.6174473453000000
+        0.0116485249492821       -1.0364684603541769        0.1485364269516689        0.5225510325000000
+       -2.7055161891965049       -1.1531549822253937       -0.9579959469201932        0.0948963128000000
