6
s                      x[A]                      y[A]                      z[A]                      q[e]
N        0.0000000000000000        1.0675361405701576       -0.4045337184913894        0.1979110689179275
N        0.0000000000000000        0.7671898260443880       -0.9141756579865632        0.1054997195048966
O       -0.2910474658684998        0.0039586206655552        0.1370116888253302       -0.3034107735216629
O        0.2910474658684998        0.0039586206655552        0.1370116888253302       -0.3034107735216629
N        0.0000000000000000       -1.0675361405701576       -0.4045337184913894        0.1979110689179275
N        0.0000000000000000       -0.7671898260443880       -0.9141756579865632        0.1054997195048966

        RMSE         1.041100151E+00 kcal/mol
         MAE         7.216993070E-01 kcal/mol
     max. AE         5.750698600E+00 kcal/mol

Coordinates in bohr
s                   x[bohr]                   y[bohr]                   z[bohr]                      q[e]
+        0.0000000000000000        2.0173509347058474       -0.7644579364617811        0.1979110689179275
+        0.0000000000000000        1.4497786574615266       -1.7275416241548087        0.1054997195048966
-       -0.5499999999999997        0.0074807088924770        0.2589145678663249       -0.3034107735216629
-        0.5499999999999997        0.0074807088924770        0.2589145678663249       -0.3034107735216629
+        0.0000000000000000       -2.0173509347058474       -0.7644579364617811        0.1979110689179275
+        0.0000000000000000       -1.4497786574615266       -1.7275416241548087        0.1054997195048966
