6
s                      x[A]                      y[A]                      z[A]                      q[e]
N        0.0806911987202714       -0.4654909054147728        0.0750060423916897        0.5225510325000000
N        1.3805110284581641       -0.3219956550236459       -0.4173301420618705        0.0948963128000000
O        0.0162636769090931       -0.2869304771644818       -0.5240987746140585       -0.6174473453000000
O        0.0162636769090931       -0.2869304771644818        0.5240987746140585       -0.6174473453000000
N       -0.0780249140013620       -0.5385502401564276        0.0750060423916897        0.5225510325000000
N       -1.3854883187350693       -0.5642780839603420       -0.4173301420618705        0.0948963128000000

        RMSE         5.762589699E+00 kcal/mol
         MAE         4.743088536E+00 kcal/mol
     max. AE         2.505797417E+01 kcal/mol

Coordinates in bohr
s                   x[bohr]                   y[bohr]                   z[bohr]                      q[e]
+        0.1524842663162062       -0.8796503251253149        0.1417408778747734        0.5225510325000000
+        2.6087877569600479       -0.6084836015820897       -0.7886396723953436        0.0948963128000000
-        0.0307338951511184       -0.5422200188878021       -0.9904031467086204       -0.6174473453000000
-        0.0307338951511184       -0.5422200188878021        0.9904031467086204       -0.6174473453000000
+       -0.1474457184249740       -1.0177124586951889        0.1417408778747734        0.5225510325000000
+       -2.6181934724303031       -1.0663310372831440       -0.7886396723953436        0.0948963128000000
