6
s                      x[A]                      y[A]                      z[A]                      q[e]
N        0.0000000000000000        1.0103985778634075       -0.3463189127132217        0.2314283515440728
N        0.0000000000000000        0.8481345106705480       -0.6834302696152568        0.1229317230114044
O       -0.1852120237345000        0.0075705690578433        0.0572027063889601       -0.3543600596543159
O        0.1852120237345000        0.0075705690578433        0.0572027063889601       -0.3543600596543159
N       -0.0000000000000000       -1.0103985778634075       -0.3463189127132217        0.2314283515440728
N        0.0000000000000000       -0.8481345106705480       -0.6834302696152568        0.1229317230114044

        RMSE         1.047545361E+00 kcal/mol
         MAE         8.284759367E-01 kcal/mol
     max. AE         5.172146710E+00 kcal/mol

Coordinates in bohr
s                   x[bohr]                   y[bohr]                   z[bohr]                      q[e]
+        0.0000000000000000        1.9093765897139165       -0.6544478970943242        0.2314283515440728
+        0.0000000000000000        1.6027419427165257       -1.2914960354206380        0.1229317230114044
-       -0.3500000000000000        0.0143063021331891        0.1080974487101114       -0.3543600596543159
-        0.3500000000000000        0.0143063021331891        0.1080974487101114       -0.3543600596543159
+       -0.0000000000000000       -1.9093765897139165       -0.6544478970943242        0.2314283515440728
+        0.0000000000000000       -1.6027419427165257       -1.2914960354206380        0.1229317230114044
