6
s                      x[A]                      y[A]                      z[A]                      q[e]
N        0.5279700540959466       -0.2315589753938066        0.0000000000000000        0.5225510325000000
N        0.9236318698249684       -0.9206677368690355        0.0000000000000000        0.0948963129000000
O        0.0030808818731885        0.1590733171575557       -0.3455139784000000       -0.6174473453000000
O        0.0030808818731885        0.1590733171575557        0.3455139784000000       -0.6174473453000000
N       -0.5099935673632769       -0.1700506753500486        0.0000000000000000        0.5225510325000000
N       -0.9392319347199751       -0.8387610622567173        0.0000000000000000        0.0948963129000000

        RMSE         3.012297292E+00 kcal/mol
         MAE         2.510900408E+00 kcal/mol
     max. AE         1.107518985E+01 kcal/mol

Coordinates in bohr
s                   x[bohr]                   y[bohr]                   z[bohr]                      q[e]
+        0.9977188046844929       -0.4375830453859227        0.0000000000000000        0.5225510325000000
+        1.7454112747137065       -1.7398098752275497        0.0000000000000000        0.0948963129000000
-        0.0058220229652138        0.3006050032958720       -0.6529267916933517       -0.6174473453000000
-        0.0058220229652138        0.3006050032958720        0.6529267916933517       -0.6174473453000000
+       -0.9637481680618212       -0.3213492038607344        0.0000000000000000        0.5225510325000000
+       -1.7748911249046384       -1.5850286923632786        0.0000000000000000        0.0948963129000000
