3
s                      x[A]                      y[A]                      z[A]                      q[e]
N        0.7064526345988713       -0.5264852861993218        0.0000000000000000        0.3379860774420776
O        0.0000000000000000        0.1220557819954568        0.0000000000000000       -0.6759721250818329
N       -0.7064526345988713       -0.4499630864731757        0.0000000000000000        0.3379860774420776

        RMSE         2.098244820E+00 kcal/mol
         MAE         1.593564558E+00 kcal/mol
     max. AE         9.556477036E+00 kcal/mol

Coordinates in bohr
s                   x[bohr]                   y[bohr]                   z[bohr]                      q[e]
+        1.3350020000000000       -0.9949130000000000        0.0000000000000000        0.3379860774420776
-        0.0000000000000000        0.2306520000000000        0.0000000000000000       -0.6759721250818329
+       -1.3350020000000000       -0.8503070000000000        0.0000000000000000        0.3379860774420776
