6
s                      x[A]                      y[A]                      z[A]                      q[e]
N        0.0000000000000000        1.0680650198075154       -0.1670039552319231        0.1979110689179275
N       -0.0000000000000000        0.8802424433861161       -0.7279544832894714        0.1054997195048966
O       -0.2910474658684998        0.0027872353463809        0.0934402158219478       -0.3034107735216629
O        0.2910474658684998        0.0027872353463809        0.0934402158219478       -0.3034107735216629
N       -0.0000000000000000       -1.0680650198075154       -0.1670039552319231        0.1979110689179275
N        0.0000000000000000       -0.8802424433861161       -0.7279544832894714        0.1054997195048966

        RMSE         1.693546207E+00 kcal/mol
         MAE         1.407258263E+00 kcal/mol
     max. AE         4.933074951E+00 kcal/mol

Coordinates in bohr
s                   x[bohr]                   y[bohr]                   z[bohr]                      q[e]
+        0.0000000000000000        2.0183503716178945       -0.3155917372565546        0.1979110689179275
+       -0.0000000000000000        1.6634171420035768       -1.3756346052162682        0.1054997195048966
-       -0.5499999999999997        0.0052671114518555        0.1765764170071527       -0.3034107735216629
-        0.5499999999999997        0.0052671114518555        0.1765764170071527       -0.3034107735216629
+       -0.0000000000000000       -2.0183503716178945       -0.3155917372565546        0.1979110689179275
+        0.0000000000000000       -1.6634171420035768       -1.3756346052162682        0.1054997195048966
