3
s                      x[A]                      y[A]                      z[A]                      q[e]
N        0.8345420951503876       -0.2675636396133868        0.0000000000000000        0.3379860774420776
O        0.0000000000000000        0.0927420104103922        0.0000000000000000       -0.6759721250818329
N       -0.8345420951503876       -0.4743735020241721        0.0000000000000000        0.3379860774420776

        RMSE         2.701356464E+00 kcal/mol
         MAE         2.076687537E+00 kcal/mol
     max. AE         1.138305074E+01 kcal/mol

Coordinates in bohr
s                   x[bohr]                   y[bohr]                   z[bohr]                      q[e]
+        1.5770560000000000       -0.5056220000000000        0.0000000000000000        0.3379860774420776
-        0.0000000000000000        0.1752570000000000        0.0000000000000000       -0.6759721250818329
+       -1.5770560000000000       -0.8964360000000000        0.0000000000000000        0.3379860774420776
