6
s                      x[A]                      y[A]                      z[A]                      q[e]
N        1.0055485698024176       -0.2333689415397795        0.0000000000000000        0.2314283515440728
N        0.8767925091240825       -0.5846459992775387        0.0000000000000000        0.1229317230114044
O        0.0123350730081426        0.0472197822183916       -0.1852120237345000       -0.3543600596543159
O        0.0123350730081426        0.0472197822183916        0.1852120237345000       -0.3543600596543159
N       -1.0137423369767100       -0.3497371050544432        0.0000000000000000        0.2314283515440728
N       -0.8539921482986927       -0.6880469802748364        0.0000000000000000        0.1229317230114044

        RMSE         1.479732456E+00 kcal/mol
         MAE         1.217465436E+00 kcal/mol
     max. AE         5.326214865E+00 kcal/mol

Coordinates in bohr
s                   x[bohr]                   y[bohr]                   z[bohr]                      q[e]
+        1.9002114027723831       -0.4410033856981619        0.0000000000000000        0.2314283515440728
+        1.6568977110974998       -1.1048208189791633        0.0000000000000000        0.1229317230114044
-        0.0233099097229167        0.0892324560965236       -0.3500000000000000       -0.3543600596543159
-        0.0233099097229167        0.0892324560965236        0.3500000000000000       -0.3543600596543159
+       -1.9156953786675621       -0.6609073444633704        0.0000000000000000        0.2314283515440728
+       -1.6138112735758956       -1.3002203541677253        0.0000000000000000        0.1229317230114044
