3
s                      x[A]                      y[A]                      z[A]                      q[e]
N        0.0000000000000000        0.7975362036310238       -0.4944600105867840        0.3613484133133580
O        0.0000000000000000        0.0000000000000000        0.1236152672353013       -0.7226967968243936
N        0.0000000000000000       -0.7975362036310238       -0.4944600105867840        0.3613484133133580

        RMSE         2.273882496E+00 kcal/mol
         MAE         1.764245723E+00 kcal/mol
     max. AE         9.114363559E+00 kcal/mol

Coordinates in bohr
s                   x[bohr]                   y[bohr]                   z[bohr]                      q[e]
+        0.0000000000000000        1.5071250000000000       -0.9343939999999999        0.3613484133133580
-        0.0000000000000000        0.0000000000000000        0.2335990000000000       -0.7226967968243936
+        0.0000000000000000       -1.5071250000000000       -0.9343939999999999        0.3613484133133580
