6
s                      x[A]                      y[A]                      z[A]                      q[e]
N       -0.0213737427310103       -0.5477186349009103        0.0790939162613164        0.5225510325000000
N        1.4304506147281868       -0.6270955549628654       -0.5172508708685628        0.0948963128000000
O       -0.0923046693499986       -0.3349468986076686       -0.5680684204892708       -0.6174473453000000
O       -0.0923046693499986       -0.3349468986076686        0.5680684204892708       -0.6174473453000000
N        0.0232527977896718       -0.4808618594643682        0.0790939162613164        0.5225510325000000
N       -1.4286121745085725       -0.4022313147393615       -0.5172508708685628        0.0948963128000000

        RMSE         8.429988537E+00 kcal/mol
         MAE         6.984443621E+00 kcal/mol
     max. AE         3.833872158E+01 kcal/mol

Coordinates in bohr
s                   x[bohr]                   y[bohr]                   z[bohr]                      q[e]
+       -0.0403905200376046       -1.0350382137723479        0.1494658399237833        0.5225510325000000
+        2.7031598978290647       -1.1850388533718021       -0.9774624840961367        0.0948963128000000
-       -0.1744305451724388       -0.6329579049399856       -1.0734937352461380       -0.6174473453000000
-       -0.1744305451724388       -0.6329579049399856        1.0734937352461380       -0.6174473453000000
+        0.0439414194731308       -0.9086972185660471        0.1494658399237833        0.5225510325000000
+       -2.6996857493159672       -0.7601070239402219       -0.9774624840961367        0.0948963128000000
