3
s                      x[A]                      y[A]                      z[A]                      q[e]
N        0.6507567331758538       -0.5007551026849143        0.0000000000000000        0.3379860774420776
O        0.0000000000000000        0.1339072348056222        0.0000000000000000       -0.6759721250818329
N       -0.6507567331758538       -0.5705048924689057        0.0000000000000000        0.3379860774420776

        RMSE         2.062498159E+00 kcal/mol
         MAE         1.595738900E+00 kcal/mol
     max. AE         8.621496457E+00 kcal/mol

Coordinates in bohr
s                   x[bohr]                   y[bohr]                   z[bohr]                      q[e]
+        1.2297520000000000       -0.9462900000000000        0.0000000000000000        0.3379860774420776
-        0.0000000000000000        0.2530480000000000        0.0000000000000000       -0.6759721250818329
+       -1.2297520000000000       -1.0780980000000000        0.0000000000000000        0.3379860774420776
