6
s                      x[A]                      y[A]                      z[A]                      q[e]
N        0.0000000000000000        0.8708079221378578       -0.5419001107737360        0.2314283515440728
N        0.0000000000000000        0.6318092198947881       -0.8297426280994927        0.1229317230114044
O       -0.1852120237345000       -0.0046113979496061        0.0922413215037549       -0.3543600596543159
O        0.1852120237345000       -0.0046113979496061        0.0922413215037549       -0.3543600596543159
N       -0.0000000000000000       -0.8708079221378578       -0.5419001107737360        0.2314283515440728
N        0.0000000000000000       -0.6318092198947881       -0.8297426280994927        0.1229317230114044

        RMSE         1.507070739E+00 kcal/mol
         MAE         1.151757577E+00 kcal/mol
     max. AE         6.958110166E+00 kcal/mol

Coordinates in bohr
s                   x[bohr]                   y[bohr]                   z[bohr]                      q[e]
+        0.0000000000000000        1.6455884807195562       -1.0240427967176200        0.2314283515440728
+        0.0000000000000000        1.1939463891403108       -1.5679863217256500        0.1229317230114044
-       -0.3500000000000000       -0.0087142791802533        0.1743108350924006       -0.3543600596543159
-        0.3500000000000000       -0.0087142791802533        0.1743108350924006       -0.3543600596543159
+       -0.0000000000000000       -1.6455884807195562       -1.0240427967176200        0.2314283515440728
+        0.0000000000000000       -1.1939463891403108       -1.5679863217256500        0.1229317230114044
