6
s                      x[A]                      y[A]                      z[A]                      q[e]
N        0.0814500756705077        0.3512599450568686       -0.4132904489513269        0.5225510325000000
N       -0.1881975097320976        1.2446885415604270       -0.4075093863521758        0.0948963128000000
O       -0.3849838634638221        0.1130561814245511       -0.1863152596402052       -0.6174473453000000
O        0.3849838634638221        0.1130561814245511       -0.1863152596402052       -0.6174473453000000
N        0.0814500756705077       -0.3512599450568686       -0.4132904489513269        0.5225510325000000
N       -0.1881975097320976       -1.2446885415604270       -0.4075093863521758        0.0948963128000000

        RMSE         5.759286795E+00 kcal/mol
         MAE         4.529326635E+00 kcal/mol
     max. AE         2.019142982E+01 kcal/mol

Coordinates in bohr
s                   x[bohr]                   y[bohr]                   z[bohr]                      q[e]
+        0.1539183359150754        0.6637850950008458       -0.7810057587855173        0.5225510325000000
+       -0.3556417508868487        2.3521204550447408       -0.7700811337589942        0.0948963128000000
-       -0.7275140646672740        0.2136452196824743       -0.3520848137135543       -0.6174473453000000
-        0.7275140646672740        0.2136452196824743       -0.3520848137135543       -0.6174473453000000
+        0.1539183359150754       -0.6637850950008458       -0.7810057587855173        0.5225510325000000
+       -0.3556417508868487       -2.3521204550447408       -0.7700811337589942        0.0948963128000000
