6
s                      x[A]                      y[A]                      z[A]                      q[e]
N        0.0000000000000000        0.9747660156042510       -0.3818807996861300        0.1979110689179275
N        0.0000000000000000        0.6568164680353922       -0.8807303765551225        0.1054997195048966
O       -0.2910474658684998        0.0041383138068895        0.1285411074287765       -0.3034107735216629
O        0.2910474658684998        0.0041383138068895        0.1285411074287765       -0.3034107735216629
N        0.0000000000000000       -0.9747660156042510       -0.3818807996861300        0.1979110689179275
N        0.0000000000000000       -0.6568164680353922       -0.8807303765551225        0.1054997195048966

        RMSE         7.203021970E-01 kcal/mol
         MAE         4.685284845E-01 kcal/mol
     max. AE         4.410699150E+00 kcal/mol

Coordinates in bohr
s                   x[bohr]                   y[bohr]                   z[bohr]                      q[e]
+        0.0000000000000000        1.8420408058957862       -0.7216501239776075        0.1979110689179275
+        0.0000000000000000        1.2412032392774170       -1.6643392020605257        0.1054997195048966
-       -0.5499999999999997        0.0078202797162220        0.2429074889034402       -0.3034107735216629
-        0.5499999999999997        0.0078202797162220        0.2429074889034402       -0.3034107735216629
+        0.0000000000000000       -1.8420408058957862       -0.7216501239776075        0.1979110689179275
+        0.0000000000000000       -1.2412032392774170       -1.6643392020605257        0.1054997195048966
