6
s                      x[A]                      y[A]                      z[A]                      q[e]
N        1.0115847685668056       -0.4969353170042159        0.0000000000000000        0.1979110689179275
N        0.6640511274565223       -0.9756452327551263        0.0000000000000000        0.1054997195048966
O        0.0044377311817285        0.1434737172726926       -0.2910474658684998       -0.3034107735216629
O        0.0044377311817285        0.1434737172726926        0.2910474658684998       -0.3034107735216629
N       -1.0064049188512620       -0.4100330159853099        0.0000000000000000        0.1979110689179275
N       -0.6838272259031838       -0.9059024011603882        0.0000000000000000        0.1054997195048966

        RMSE         1.269704379E+00 kcal/mol
         MAE         9.155608210E-01 kcal/mol
     max. AE         6.276997036E+00 kcal/mol

Coordinates in bohr
s                   x[bohr]                   y[bohr]                   z[bohr]                      q[e]
+        1.9116181652759034       -0.9390716512055346        0.0000000000000000        0.1979110689179275
+        1.2548747641943163       -1.8437022855157457        0.0000000000000000        0.1054997195048966
-        0.0083860965518712        0.2711260318467573       -0.5499999999999997       -0.3034107735216629
-        0.0083860965518712        0.2711260318467573        0.5499999999999997       -0.3034107735216629
+       -1.9018296679424955       -0.7748501026077075        0.0000000000000000        0.1979110689179275
+       -1.2922461740885984       -1.7119074345877636        0.0000000000000000        0.1054997195048966
