3
s                      x[A]                      y[A]                      z[A]                      q[e]
N        0.0000000000000000        0.8186207404129593       -0.4718921900833405        0.3613484133133580
O        0.0000000000000000        0.0000000000000000        0.1179731798151378       -0.7226967968243936
N        0.0000000000000000       -0.8186207404129593       -0.4718921900833405        0.3613484133133580

        RMSE         2.317032865E+00 kcal/mol
         MAE         1.774367978E+00 kcal/mol
     max. AE         9.603798926E+00 kcal/mol

Coordinates in bohr
s                   x[bohr]                   y[bohr]                   z[bohr]                      q[e]
+        0.0000000000000000        1.5469690000000000       -0.8917470000000000        0.3613484133133580
-        0.0000000000000000        0.0000000000000000        0.2229370000000000       -0.7226967968243936
+        0.0000000000000000       -1.5469690000000000       -0.8917470000000000        0.3613484133133580
