3
s                      x[A]                      y[A]                      z[A]                      q[e]
N        0.7440496170625536       -0.4018095478338377        0.0000000000000000        0.3379860774420776
O        0.0000000000000000        0.1203703525794729        0.0000000000000000       -0.6759721250818329
N       -0.7440496170625536       -0.5611511560931027        0.0000000000000000        0.3379860774420776

        RMSE         2.228336562E+00 kcal/mol
         MAE         1.693373098E+00 kcal/mol
     max. AE         1.053923706E+01 kcal/mol

Coordinates in bohr
s                   x[bohr]                   y[bohr]                   z[bohr]                      q[e]
+        1.4060500000000000       -0.7593100000000000        0.0000000000000000        0.3379860774420776
-        0.0000000000000000        0.2274670000000000        0.0000000000000000       -0.6759721250818329
+       -1.4060500000000000       -1.0604220000000000        0.0000000000000000        0.3379860774420776
