3
s                      x[A]                      y[A]                      z[A]                      q[e]
N        0.0000000000000000        0.7039311051900288       -0.5210215314991540        0.3613484133133580
O        0.0000000000000000        0.0000000000000000        0.1302553828747885       -0.7226967968243936
N        0.0000000000000000       -0.7039311051900288       -0.5210215314991540        0.3613484133133580

        RMSE         2.054554504E+00 kcal/mol
         MAE         1.596981840E+00 kcal/mol
     max. AE         7.887606692E+00 kcal/mol

Coordinates in bohr
s                   x[bohr]                   y[bohr]                   z[bohr]                      q[e]
+        0.0000000000000000        1.3302369999999999       -0.9845880000000000        0.3613484133133580
-        0.0000000000000000        0.0000000000000000        0.2461470000000000       -0.7226967968243936
+        0.0000000000000000       -1.3302369999999999       -0.9845880000000000        0.3613484133133580
