6
s                      x[A]                      y[A]                      z[A]                      q[e]
N        0.0000000000000000        1.0151003990254925       -0.3071015555656566        0.1979110689179275
N        0.0000000000000000        0.7418385198327598       -0.8317640761650140        0.1054997195048966
O       -0.2910474658684998        0.0036801048305427        0.1167817729434886       -0.3034107735216629
O        0.2910474658684998        0.0036801048305427        0.1167817729434886       -0.3034107735216629
N       -0.0000000000000000       -1.0151003990254925       -0.3071015555656566        0.1979110689179275
N        0.0000000000000000       -0.7418385198327598       -0.8317640761650140        0.1054997195048966

        RMSE         8.222760468E-01 kcal/mol
         MAE         6.336878130E-01 kcal/mol
     max. AE         4.406232597E+00 kcal/mol

Coordinates in bohr
s                   x[bohr]                   y[bohr]                   z[bohr]                      q[e]
+        0.0000000000000000        1.9182617440011394       -0.5803378327211601        0.1979110689179275
+        0.0000000000000000        1.4018716317989315       -1.5718063049463218        0.1054997195048966
-       -0.5499999999999997        0.0069543902427002        0.2206855673085945       -0.3034107735216629
-        0.5499999999999997        0.0069543902427002        0.2206855673085945       -0.3034107735216629
+       -0.0000000000000000       -1.9182617440011394       -0.5803378327211601        0.1979110689179275
+        0.0000000000000000       -1.4018716317989315       -1.5718063049463218        0.1054997195048966
