6
s                      x[A]                      y[A]                      z[A]                      q[e]
N        1.0009112003550658       -0.5111998406784017        0.0000000000000000        0.1979110689179275
N        0.6454909356092630       -0.9840838122291811        0.0000000000000000        0.1054997195048966
O        0.0045169627476449        0.1458141381367194       -0.2910474658684998       -0.3034107735216629
O        0.0045169627476449        0.1458141381367194        0.2910474658684998       -0.3034107735216629
N       -0.9961783024140110       -0.4259739934858806        0.0000000000000000        0.1979110689179275
N       -0.6645653787121820       -0.9158471239753370        0.0000000000000000        0.1054997195048966

        RMSE         1.378314774E+00 kcal/mol
         MAE         1.007410759E+00 kcal/mol
     max. AE         6.687242659E+00 kcal/mol

Coordinates in bohr
s                   x[bohr]                   y[bohr]                   z[bohr]                      q[e]
+        1.8914480445743225       -0.9660276942598551        0.0000000000000000        0.1979110689179275
+        1.2198010847670409       -1.8596488896096193        0.0000000000000000        0.1054997195048966
-        0.0085358225119444        0.2755487862980753       -0.5499999999999997       -0.3034107735216629
-        0.0085358225119444        0.2755487862980753        0.5499999999999997       -0.3034107735216629
+       -1.8825041636859856       -0.8049741842558713        0.0000000000000000        0.1979110689179275
+       -1.2558465582271860       -1.7307002371016087        0.0000000000000000        0.1054997195048966
