6
s                      x[A]                      y[A]                      z[A]                      q[e]
N        0.5119794350201099       -0.2543868460263004        0.0000000000000000        0.5225510325000000
N        0.8785739438899318       -0.9593887067574650        0.0000000000000000        0.0948963129000000
O        0.0038285675410034        0.1577846443330596       -0.3455139784000000       -0.6174473453000000
O        0.0038285675410034        0.1577846443330596        0.3455139784000000       -0.6174473453000000
N       -0.4761084035682661       -0.1330129842003221        0.0000000000000000        0.5225510325000000
N       -0.9098757660109225       -0.7987945045562507        0.0000000000000000        0.0948963129000000

        RMSE         3.013828590E+00 kcal/mol
         MAE         2.438685650E+00 kcal/mol
     max. AE         1.240287525E+01 kcal/mol

Coordinates in bohr
s                   x[bohr]                   y[bohr]                   z[bohr]                      q[e]
+        0.9675009140546402       -0.4807214689087177        0.0000000000000000        0.5225510325000000
+        1.6602641349153242       -1.8129819036287809        0.0000000000000000        0.0948963129000000
-        0.0072349441053139        0.2981697645922541       -0.6529267916933517       -0.6174473453000000
-        0.0072349441053139        0.2981697645922541        0.6529267916933517       -0.6174473453000000
+       -0.8997144887729716       -0.2513581112684580        0.0000000000000000        0.5225510325000000
+       -1.7194160059517940       -1.5095028441320890        0.0000000000000000        0.0948963129000000
