6
s                      x[A]                      y[A]                      z[A]                      q[e]
N        0.4957268020070258       -0.1049740553787242        0.0000000000000000        0.5225510325000000
N        0.9795130328845429       -0.7353469929174767        0.0000000000000000        0.0948963129000000
O        0.0006595822346051        0.1487141873556203       -0.3455139784000000       -0.6174473453000000
O        0.0006595822346051        0.1487141873556203        0.3455139784000000       -0.6174473453000000
N       -0.5356025505381932       -0.2311118802300292        0.0000000000000000        0.5225510325000000
N       -0.9455043871067917       -0.9118465142436074        0.0000000000000000        0.0948963129000000

        RMSE         1.446470622E+00 kcal/mol
         MAE         1.142585749E+00 kcal/mol
     max. AE         7.213788556E+00 kcal/mol

Coordinates in bohr
s                   x[bohr]                   y[bohr]                   z[bohr]                      q[e]
+        0.9367878888423369       -0.1983722149444319        0.0000000000000000        0.5225510325000000
+        1.8510113684683536       -1.3896044237930083        0.0000000000000000        0.0948963129000000
-        0.0012464297806210        0.2810290850721460       -0.6529267916933517       -0.6174473453000000
-        0.0012464297806210        0.2810290850721460        0.6529267916933517       -0.6174473453000000
+       -1.0121421326138704       -0.4367381579743667        0.0000000000000000        0.5225510325000000
+       -1.7867443420506961       -1.7231401803737985        0.0000000000000000        0.0948963129000000
