3
s                      x[A]                      y[A]                      z[A]                      q[e]
N        0.7925751672809924       -0.5174728691244009        0.0000000000000000        0.3379860774420776
O        0.0000000000000000        0.1069514768713030        0.0000000000000000       -0.6759721250818329
N       -0.7925751672809924       -0.3381389458460233        0.0000000000000000        0.3379860774420776

        RMSE         2.398655366E+00 kcal/mol
         MAE         1.808203858E+00 kcal/mol
     max. AE         1.039129505E+01 kcal/mol

Coordinates in bohr
s                   x[bohr]                   y[bohr]                   z[bohr]                      q[e]
+        1.4977499999999999       -0.9778820000000000        0.0000000000000000        0.3379860774420776
-        0.0000000000000000        0.2021090000000000        0.0000000000000000       -0.6759721250818329
+       -1.4977499999999999       -0.6389899999999999        0.0000000000000000        0.3379860774420776
