3
s                      x[A]                      y[A]                      z[A]                      q[e]
N        0.0000000000000000        0.6779019365515929       -0.4844659697860704        0.3613484133133580
O        0.0000000000000000        0.0000000000000000        0.1211164924465176       -0.7226967968243936
N        0.0000000000000000       -0.6779019365515929       -0.4844659697860704        0.3613484133133580

        RMSE         1.923378770E+00 kcal/mol
         MAE         1.455475130E+00 kcal/mol
     max. AE         7.998169044E+00 kcal/mol

Coordinates in bohr
s                   x[bohr]                   y[bohr]                   z[bohr]                      q[e]
+        0.0000000000000000        1.2810490000000001       -0.9155080000000000        0.3613484133133580
-        0.0000000000000000        0.0000000000000000        0.2288770000000000       -0.7226967968243936
+        0.0000000000000000       -1.2810490000000001       -0.9155080000000000        0.3613484133133580
