6
s                      x[A]                      y[A]                      z[A]                      q[e]
N        1.0750623650148123       -0.1302556054986629        0.0000000000000000        0.1979110689179275
N        0.9037524369060111       -0.6964673359255168        0.0000000000000000        0.1054997195048966
O        0.0026124181710487        0.0988714177192311       -0.2910474658684998       -0.3034107735216629
O        0.0026124181710487        0.0988714177192311        0.2910474658684998       -0.3034107735216629
N       -1.0917261888245307       -0.2564842797936063        0.0000000000000000        0.1979110689179275
N       -0.8683005416000119       -0.8042285589092533        0.0000000000000000        0.1054997195048966

        RMSE         1.479457299E+00 kcal/mol
         MAE         1.220390766E+00 kcal/mol
     max. AE         4.663549267E+00 kcal/mol

Coordinates in bohr
s                   x[bohr]                   y[bohr]                   z[bohr]                      q[e]
+        2.0315734376649708       -0.2461474206981517        0.0000000000000000        0.1979110689179275
+        1.7078445909674667       -1.3161325202264624        0.0000000000000000        0.1054997195048966
-        0.0049367548684515        0.1868399011250849       -0.5499999999999997       -0.3034107735216629
-        0.0049367548684515        0.1868399011250849        0.5499999999999997       -0.3034107735216629
+       -2.0630635008682217       -0.4846850442952131        0.0000000000000000        0.1979110689179275
+       -1.6408502182107243       -1.5197717186101158        0.0000000000000000        0.1054997195048966
