6
s                      x[A]                      y[A]                      z[A]                      q[e]
N        0.0769760361875392       -0.0036671202106392       -0.4843380330266817        0.5225510325000000
N       -0.4703823918473785        1.3817074601399482       -0.4373921996429914        0.0948963128000000
O       -0.5478506722562467       -0.0341531056936444       -0.3237825690166818       -0.6174473453000000
O        0.5478506722562467       -0.0341531056936444       -0.3237825690166818       -0.6174473453000000
N        0.0769760361875392        0.0036671202106392       -0.4843380330266817        0.5225510325000000
N       -0.4703823918473785       -1.3817074601399482       -0.4373921996429914        0.0948963128000000

        RMSE         7.641139462E+00 kcal/mol
         MAE         6.431567194E+00 kcal/mol
     max. AE         3.239438753E+01 kcal/mol

Coordinates in bohr
s                   x[bohr]                   y[bohr]                   z[bohr]                      q[e]
+        0.1454636266177801       -0.0069298528672394       -0.9152662345633767        0.5225510325000000
+       -0.8888938948293325        2.6110486851664407       -0.8265514667368270        0.0948963128000000
-       -1.0352877282122637       -0.0645400160948024       -0.6118603796386759       -0.6174473453000000
-        1.0352877282122637       -0.0645400160948024       -0.6118603796386759       -0.6174473453000000
+        0.1454636266177801        0.0069298528672394       -0.9152662345633767        0.5225510325000000
+       -0.8888938948293325       -2.6110486851664407       -0.8265514667368270        0.0948963128000000
