6
s                      x[A]                      y[A]                      z[A]                      q[e]
N        0.0000000000000000        1.0622986747717018       -0.3157942983708223        0.1979110689179275
N        0.0000000000000000        0.7982348100098665       -0.8451458738560172        0.1054997195048966
O       -0.2910474658684998        0.0035849892701922        0.1203070502051124       -0.3034107735216629
O        0.2910474658684998        0.0035849892701922        0.1203070502051124       -0.3034107735216629
N        0.0000000000000000       -1.0622986747717018       -0.3157942983708223        0.1979110689179275
N        0.0000000000000000       -0.7982348100098665       -0.8451458738560172        0.1054997195048966

        RMSE         7.541216035E-01 kcal/mol
         MAE         5.465830750E-01 kcal/mol
     max. AE         4.302174740E+00 kcal/mol

Coordinates in bohr
s                   x[bohr]                   y[bohr]                   z[bohr]                      q[e]
+        0.0000000000000000        2.0074535587553135       -0.5967647359019674        0.1979110689179275
+        0.0000000000000000        1.5084451747255105       -1.5970942376486019        0.1054997195048966
-       -0.5499999999999997        0.0067746478833683        0.2273473758493674       -0.3034107735216629
-        0.5499999999999997        0.0067746478833683        0.2273473758493674       -0.3034107735216629
+        0.0000000000000000       -2.0074535587553135       -0.5967647359019674        0.1979110689179275
+        0.0000000000000000       -1.5084451747255105       -1.5970942376486019        0.1054997195048966
