3
s                      x[A]                      y[A]                      z[A]                      q[e]
N        0.0000000000000000        0.7727611849818757       -0.3829327383748174        0.3613484133133580
O        0.0000000000000000        0.0000000000000000        0.0957329200050990       -0.7226967968243936
N        0.0000000000000000       -0.7727611849818757       -0.3829327383748174        0.3613484133133580

        RMSE         2.391669926E+00 kcal/mol
         MAE         1.832434758E+00 kcal/mol
     max. AE         9.446611776E+00 kcal/mol

Coordinates in bohr
s                   x[bohr]                   y[bohr]                   z[bohr]                      q[e]
+        0.0000000000000000        1.4603070000000000       -0.7236380000000000        0.3613484133133580
-        0.0000000000000000        0.0000000000000000        0.1809090000000000       -0.7226967968243936
+        0.0000000000000000       -1.4603070000000000       -0.7236380000000000        0.3613484133133580
