6
s                      x[A]                      y[A]                      z[A]                      q[e]
N        0.0792262919163631       -0.0442172663817464       -0.5081323489142133        0.5225510325000000
N       -0.5199750902630180        1.4128311046930004       -0.5579380294282285        0.0948963128000000
O       -0.5692252771622270       -0.0837831014686519       -0.3339663644227479       -0.6174473453000000
O        0.5692252771622270       -0.0837831014686519       -0.3339663644227479       -0.6174473453000000
N        0.0792262919163631        0.0442172663817464       -0.5081323489142133        0.5225510325000000
N       -0.5199750902630180       -1.4128311046930004       -0.5579380294282285        0.0948963128000000

        RMSE         8.346421654E+00 kcal/mol
         MAE         6.935780808E+00 kcal/mol
     max. AE         3.846645394E+01 kcal/mol

Coordinates in bohr
s                   x[bohr]                   y[bohr]                   z[bohr]                      q[e]
+        0.1497159936574997       -0.0835585234779144       -0.9602309749334417        0.5225510325000000
+       -0.9826105126573176        2.6698638493978071       -1.0543500705969819        0.0948963128000000
-       -1.0756798775244336       -0.1583271157171955       -0.6311049638738364       -0.6174473453000000
-        1.0756798775244336       -0.1583271157171955       -0.6311049638738364       -0.6174473453000000
+        0.1497159936574997        0.0835585234779144       -0.9602309749334417        0.5225510325000000
+       -0.9826105126573176       -2.6698638493978071       -1.0543500705969819        0.0948963128000000
