6
s                      x[A]                      y[A]                      z[A]                      q[e]
N        1.1015790684496216       -0.3500689712077621        0.0000000000000000        0.1979110689179275
N        0.8366333744373806       -0.8789797334030373        0.0000000000000000        0.1054997195048966
O        0.0035941193989581        0.1177964722565603       -0.2910474658684998       -0.3034107735216629
O        0.0035941193989581        0.1177964722565603        0.2910474658684998       -0.3034107735216629
N       -1.0903399828781208       -0.2413311166382374        0.0000000000000000        0.1979110689179275
N       -0.8647560031269050       -0.7881900410613631        0.0000000000000000        0.1054997195048966

        RMSE         8.188936706E-01 kcal/mol
         MAE         6.029685075E-01 kcal/mol
     max. AE         4.171906164E+00 kcal/mol

Coordinates in bohr
s                   x[bohr]                   y[bohr]                   z[bohr]                      q[e]
+        2.0816827449067472       -0.6615344806034523        0.0000000000000000        0.1979110689179275
+        1.5810079451042596       -1.6610309659596763        0.0000000000000000        0.1054997195048966
-        0.0067919013262258        0.2226030711099903       -0.5499999999999997       -0.3034107735216629
-        0.0067919013262258        0.2226030711099903        0.5499999999999997       -0.3034107735216629
+       -2.0604439512760262       -0.4560497159971876        0.0000000000000000        0.1979110689179275
+       -1.6341520112554038       -1.4894633124193362        0.0000000000000000        0.1054997195048966
