6
s                      x[A]                      y[A]                      z[A]                      q[e]
N        0.0786020852486236       -0.0046564011566243       -0.5139974270102378        0.5225510325000000
N       -0.5069494775005187        1.4344015451663474       -0.4947482949988488        0.0948963128000000
O       -0.5636767980944639       -0.0565924229153000       -0.3358479073958634       -0.6174473453000000
O        0.5636767980944639       -0.0565924229153000       -0.3358479073958634       -0.6174473453000000
N        0.0786020852486236        0.0046564011566243       -0.5139974270102378        0.5225510325000000
N       -0.5069494775005187       -1.4344015451663474       -0.4947482949988488        0.0948963128000000

        RMSE         7.755286505E+00 kcal/mol
         MAE         6.488263687E+00 kcal/mol
     max. AE         3.568142294E+01 kcal/mol

Coordinates in bohr
s                   x[bohr]                   y[bohr]                   z[bohr]                      q[e]
+        0.1485364140097873       -0.0087993229162850       -0.9713143662393495        0.5225510325000000
+       -0.9579956719199256        2.7106260742979238       -0.9349387785850410        0.0948963128000000
-       -1.0651947716735257       -0.1069441800860008       -0.6346605647863044       -0.6174473453000000
-        1.0651947716735257       -0.1069441800860008       -0.6346605647863044       -0.6174473453000000
+        0.1485364140097873        0.0087993229162850       -0.9713143662393495        0.5225510325000000
+       -0.9579956719199256       -2.7106260742979238       -0.9349387785850410        0.0948963128000000
