6
s                      x[A]                      y[A]                      z[A]                      q[e]
N        0.0000000000000000        0.5285008486411263       -0.0575762702815288        0.5225510325000000
N        0.0000000000000000        1.1122845973668103       -0.5966641038408642        0.0948963129000000
O       -0.3455139784000000       -0.0024486801319899        0.1083797223345686       -0.6174473453000000
O        0.3455139784000000       -0.0024486801319899        0.1083797223345686       -0.6174473453000000
N        0.0000000000000000       -0.5285008486411263       -0.0575762702815288        0.5225510325000000
N        0.0000000000000000       -1.1122845973668103       -0.5966641038408642        0.0948963129000000

        RMSE         2.018036829E+00 kcal/mol
         MAE         1.669836628E+00 kcal/mol
     max. AE         8.080228984E+00 kcal/mol

Coordinates in bohr
s                   x[bohr]                   y[bohr]                   z[bohr]                      q[e]
+        0.0000000000000000        0.9987218610037698       -0.1088033821574261        0.5225510325000000
+        0.0000000000000000        2.1019132625884027       -1.1275317451509637        0.0948963129000000
-       -0.6529267916933517       -0.0046273348183108        0.2048079927654995       -0.6174473453000000
-        0.6529267916933517       -0.0046273348183108        0.2048079927654995       -0.6174473453000000
+        0.0000000000000000       -0.9987218610037698       -0.1088033821574261        0.5225510325000000
+        0.0000000000000000       -2.1019132625884027       -1.1275317451509637        0.0948963129000000
