3
s                      x[A]                      y[A]                      z[A]                      q[e]
N        0.7330644273462550       -0.5621608262110611        0.0000000000000000        0.3379860774420776
O        0.0000000000000000        0.1311623926138769        0.0000000000000000       -0.6759721250818329
N       -0.7330644273462550       -0.4871393730543752        0.0000000000000000        0.3379860774420776

        RMSE         2.273984842E+00 kcal/mol
         MAE         1.778196514E+00 kcal/mol
     max. AE         9.754290772E+00 kcal/mol

Coordinates in bohr
s                   x[bohr]                   y[bohr]                   z[bohr]                      q[e]
+        1.3852910000000001       -1.0623300000000000        0.0000000000000000        0.3379860774420776
-        0.0000000000000000        0.2478610000000000        0.0000000000000000       -0.6759721250818329
+       -1.3852910000000001       -0.9205600000000000        0.0000000000000000        0.3379860774420776
