6
s                      x[A]                      y[A]                      z[A]                      q[e]
N        0.9347717745738909       -0.5449295035585384        0.0000000000000000        0.2314283515440728
N        0.7084574923210174       -0.8428481839105210       -0.0000000000000000        0.1229317230114044
O       -0.0024517742504271        0.0862578968814205       -0.1852120237345000       -0.3543600596543159
O       -0.0024517742504271        0.0862578968814205        0.1852120237345000       -0.3543600596543159
N       -0.9325481367027924       -0.4608104788701066        0.0000000000000000        0.2314283515440728
N       -0.7223405123858300       -0.7703043384752994        0.0000000000000000        0.1229317230114044

        RMSE         1.277222347E+00 kcal/mol
         MAE         9.491673984E-01 kcal/mol
     max. AE         6.641133539E+00 kcal/mol

Coordinates in bohr
s                   x[bohr]                   y[bohr]                   z[bohr]                      q[e]
+        1.7664626437528572       -1.0297675194073346        0.0000000000000000        0.2314283515440728
+        1.3387906320153653       -1.5927522329303958       -0.0000000000000000        0.1229317230114044
-       -0.0046331818547569        0.1630038012638676       -0.3500000000000000       -0.3543600596543159
-       -0.0046331818547569        0.1630038012638676        0.3500000000000000       -0.3543600596543159
+       -1.7622605771742850       -0.8708056008055729        0.0000000000000000        0.2314283515440728
+       -1.3650257377320969       -1.4556642329702831        0.0000000000000000        0.1229317230114044
