6
s                      x[A]                      y[A]                      z[A]                      q[e]
N        0.0000000000000000        0.9168543398982165       -0.5580159884176716        0.2314283515440728
N        0.0000000000000000        0.6829155370061606       -0.8499857316372934        0.1229317230114044
O       -0.1852120237345000       -0.0037417693665330        0.0971839667764867       -0.3543600596543159
O        0.1852120237345000       -0.0037417693665330        0.0971839667764867       -0.3543600596543159
N       -0.0000000000000000       -0.9168543398982165       -0.5580159884176716        0.2314283515440728
N        0.0000000000000000       -0.6829155370061606       -0.8499857316372934        0.1229317230114044

        RMSE         1.785309512E+00 kcal/mol
         MAE         1.398266100E+00 kcal/mol
     max. AE         7.879489299E+00 kcal/mol

Coordinates in bohr
s                   x[bohr]                   y[bohr]                   z[bohr]                      q[e]
+        0.0000000000000000        1.7326035993450513       -1.0544973917360470        0.2314283515440728
+        0.0000000000000000        1.2905233317616038       -1.6062402433413798        0.1229317230114044
-       -0.3500000000000000       -0.0070709193273752        0.1836510809931526       -0.3543600596543159
-        0.3500000000000000       -0.0070709193273752        0.1836510809931526       -0.3543600596543159
+       -0.0000000000000000       -1.7326035993450513       -1.0544973917360470        0.2314283515440728
+        0.0000000000000000       -1.2905233317616038       -1.6062402433413798        0.1229317230114044
