3
s                      x[A]                      y[A]                      z[A]                      q[e]
N        0.7542495077982178       -0.3895797333180434        0.0000000000000000        0.3613484133133580
O        0.0000000000000000        0.1177551588043418        0.0000000000000000       -0.7226967968243936
N       -0.7542495077982178       -0.5524604787622693        0.0000000000000000        0.3613484133133580

        RMSE         2.157268356E+00 kcal/mol
         MAE         1.634803764E+00 kcal/mol
     max. AE         9.926821150E+00 kcal/mol

Coordinates in bohr
s                   x[bohr]                   y[bohr]                   z[bohr]                      q[e]
+        1.4253250000000000       -0.7361990000000000        0.0000000000000000        0.3613484133133580
-        0.0000000000000000        0.2225250000000000        0.0000000000000000       -0.7226967968243936
+       -1.4253250000000000       -1.0439989999999999        0.0000000000000000        0.3613484133133580
