6
s                      x[A]                      y[A]                      z[A]                      q[e]
N        0.2963597469538096       -0.4411751915843066        0.0787122077787447        0.5225510325000000
N        1.2265480966210971       -0.4710404314326486       -0.2008697887266419        0.0948963128000000
O        0.0837014857262165       -0.1922233560085473       -0.3992668471349995       -0.6174473453000000
O        0.0837014857262165       -0.1922233560085473        0.3992668471349995       -0.6174473453000000
N       -0.2992615275100857       -0.3887951877987604        0.0787122077787447        0.5225510325000000
N       -1.2283784681167074       -0.3350922168777540       -0.2008697887266419        0.0948963128000000

        RMSE         5.145943996E+00 kcal/mol
         MAE         4.008632622E+00 kcal/mol
     max. AE         1.786922180E+01 kcal/mol

Coordinates in bohr
s                   x[bohr]                   y[bohr]                   z[bohr]                      q[e]
+        0.5600387563526851       -0.8337002854407267        0.1487445154319588        0.5225510325000000
+        2.3178399823154598       -0.8901374094252028       -0.3795888875719296        0.0948963128000000
-        0.1581728843164668       -0.3632494977725329       -0.7545049920601855       -0.6174473453000000
-        0.1581728843164668       -0.3632494977725329        0.7545049920601855       -0.6174473453000000
+       -0.5655223268802255       -0.7347164238356001        0.1487445154319588        0.5225510325000000
+       -2.3212988831500079       -0.6332325166714724       -0.3795888875719296        0.0948963128000000
