6
s                      x[A]                      y[A]                      z[A]                      q[e]
N        0.9775422970081304       -0.4922131511756333        0.0000000000000000        0.2314283515440728
N        0.7713104762394157       -0.8043703720703625       -0.0000000000000000        0.1229317230114044
O        0.0008379356782053        0.0759715436884214       -0.1852120237345000       -0.3543600596543159
O        0.0008379356782053        0.0759715436884214        0.1852120237345000       -0.3543600596543159
N       -0.9740363269225883       -0.4006457084587845        0.0000000000000000        0.2314283515440728
N       -0.7872252448078151       -0.7247989346549887        0.0000000000000000        0.1229317230114044

        RMSE         9.225503867E-01 kcal/mol
         MAE         6.213994967E-01 kcal/mol
     max. AE         5.870081536E+00 kcal/mol

Coordinates in bohr
s                   x[bohr]                   y[bohr]                   z[bohr]                      q[e]
+        1.8472872173963197       -0.9301480510705178        0.0000000000000000        0.2314283515440728
+        1.4575655577889433       -1.5200397066455980       -0.0000000000000000        0.1229317230114044
-        0.0015834689425577        0.1435654108993706       -0.3500000000000000       -0.3543600596543159
-        0.0015834689425577        0.1435654108993706        0.3500000000000000       -0.3543600596543159
+       -1.8406618941305972       -0.7571106623271254        0.0000000000000000        0.2314283515440728
+       -1.4876401117332627       -1.3696714825215333        0.0000000000000000        0.1229317230114044
