3
s                      x[A]                      y[A]                      z[A]                      q[e]
N        0.6623102592164120       -0.5619449219091077        0.0000000000000000        0.3379860774420776
O        0.0000000000000000        0.1316158974834211        0.0000000000000000       -0.6759721250818329
N       -0.6623102592164120       -0.4909806704266287        0.0000000000000000        0.3379860774420776

        RMSE         2.058583377E+00 kcal/mol
         MAE         1.589286721E+00 kcal/mol
     max. AE         8.760012622E+00 kcal/mol

Coordinates in bohr
s                   x[bohr]                   y[bohr]                   z[bohr]                      q[e]
+        1.2515849999999999       -1.0619220000000000        0.0000000000000000        0.3379860774420776
-        0.0000000000000000        0.2487180000000000        0.0000000000000000       -0.6759721250818329
+       -1.2515849999999999       -0.9278189999999999        0.0000000000000000        0.3379860774420776
