6
s                      x[A]                      y[A]                      z[A]                      q[e]
N        1.0462062183945251       -0.3564586188454744        0.0000000000000000        0.1979110689179275
N        0.7633664252586785       -0.8760204212910413        0.0000000000000000        0.1054997195048966
O        0.0037788683900532        0.1172536471127679       -0.2910474658684998       -0.3034107735216629
O        0.0037788683900532        0.1172536471127679        0.2910474658684998       -0.3034107735216629
N       -1.0359340543752031       -0.2519395280386302       -0.0000000000000000        0.1979110689179275
N       -0.7909845295738105       -0.7904026608909982        0.0000000000000000        0.1054997195048966

        RMSE         8.071018972E-01 kcal/mol
         MAE         6.183080143E-01 kcal/mol
     max. AE         4.021376177E+00 kcal/mol

Coordinates in bohr
s                   x[bohr]                   y[bohr]                   z[bohr]                      q[e]
+        1.9770432235165725       -0.6736091646769071        0.0000000000000000        0.1979110689179275
+        1.4425534771086752       -1.6554386765482538        0.0000000000000000        0.1054997195048966
-        0.0071410263213502        0.2215772802542103       -0.5499999999999997       -0.3034107735216629
-        0.0071410263213502        0.2215772802542103        0.5499999999999997       -0.3034107735216629
+       -1.9576316468042716       -0.4760967081701146       -0.0000000000000000        0.1979110689179275
+       -1.4947441303685998       -1.4936445579171036        0.0000000000000000        0.1054997195048966
