6
s                      x[A]                      y[A]                      z[A]                      q[e]
N        0.0000000000000000        0.5432123748156223       -0.2079046553634414        0.5225510325000000
N        0.0000000000000000        0.9675781702047929       -0.8797177463877431        0.0948963129000000
O       -0.3455139784000000        0.0023190953248623        0.1602487406437686       -0.6174473453000000
O        0.3455139784000000        0.0023190953248623        0.1602487406437686       -0.6174473453000000
N       -0.0000000000000000       -0.5432123748156223       -0.2079046553634414        0.5225510325000000
N        0.0000000000000000       -0.9675781702047929       -0.8797177463877431        0.0948963129000000

        RMSE         2.197532475E+00 kcal/mol
         MAE         1.780360817E+00 kcal/mol
     max. AE         8.986732267E+00 kcal/mol

Coordinates in bohr
s                   x[bohr]                   y[bohr]                   z[bohr]                      q[e]
+        0.0000000000000000        1.0265226163610714       -0.3928828588446012        0.5225510325000000
+        0.0000000000000000        1.8284577466586782       -1.6624256083778022        0.0948963129000000
-       -0.6529267916933517        0.0043824550228194        0.3028262317662452       -0.6174473453000000
-        0.6529267916933517        0.0043824550228194        0.3028262317662452       -0.6174473453000000
+       -0.0000000000000000       -1.0265226163610714       -0.3928828588446012        0.5225510325000000
+        0.0000000000000000       -1.8284577466586782       -1.6624256083778022        0.0948963129000000
