6
s                      x[A]                      y[A]                      z[A]                      q[e]
N        0.9835055146380702       -0.3528418285425363        0.0000000000000000        0.1979110689179275
N        0.6743815457477991       -0.8572079525032377        0.0000000000000000        0.1054997195048966
O        0.0040483586045157        0.1404243632959515       -0.2910474658684998       -0.3034107735216629
O        0.0040483586045157        0.1404243632959515        0.2910474658684998       -0.3034107735216629
N       -0.9941241134984961       -0.5272936593164853        0.0000000000000000        0.1979110689179275
N       -0.6338409291183652       -0.9964832182311393        0.0000000000000000        0.1054997195048966

        RMSE         1.156622438E+00 kcal/mol
         MAE         8.132070875E-01 kcal/mol
     max. AE         6.117009717E+00 kcal/mol

Coordinates in bohr
s                   x[bohr]                   y[bohr]                   z[bohr]                      q[e]
+        1.8585560655434077       -0.6667744215511424        0.0000000000000000        0.1979110689179275
+        1.2743964255262494       -1.6198882627955813        0.0000000000000000        0.1054997195048966
-        0.0076502890201753        0.2653635879711408       -0.5499999999999997       -0.3034107735216629
-        0.0076502890201753        0.2653635879711408        0.5499999999999997       -0.3034107735216629
+       -1.8786223092257111       -0.9964406037986219        0.0000000000000000        0.1979110689179275
+       -1.1977857631394382       -1.8830803710716784        0.0000000000000000        0.1054997195048966
