3
s                      x[A]                      y[A]                      z[A]                      q[e]
N        0.0000000000000000        0.6563543697103211       -0.5030972410193397        0.3613484133133580
O        0.0000000000000000        0.0000000000000000        0.1257743102548349       -0.7226967968243936
N        0.0000000000000000       -0.6563543697103211       -0.5030972410193397        0.3613484133133580

        RMSE         1.887382580E+00 kcal/mol
         MAE         1.441187251E+00 kcal/mol
     max. AE         7.446503926E+00 kcal/mol

Coordinates in bohr
s                   x[bohr]                   y[bohr]                   z[bohr]                      q[e]
+        0.0000000000000000        1.2403299999999999       -0.9507160000000000        0.3613484133133580
-        0.0000000000000000        0.0000000000000000        0.2376790000000000       -0.7226967968243936
+        0.0000000000000000       -1.2403299999999999       -0.9507160000000000        0.3613484133133580
