6
s                      x[A]                      y[A]                      z[A]                      q[e]
N        0.5616326577827608       -0.2018926908684273        0.0000000000000000        0.5225510325000000
N        1.0222863692847819       -0.8493626250331907       -0.0000000000000000        0.0948963129000000
O        0.0013197540211799        0.1359712234899871       -0.3455139784000000       -0.6174473453000000
O        0.0013197540211799        0.1359712234899871        0.3455139784000000       -0.6174473453000000
N       -0.5164112548044903       -0.0679712909046785        0.0000000000000000        0.5225510325000000
N       -1.0596398384674963       -0.6479039279060763        0.0000000000000000        0.0948963129000000

        RMSE         1.193693591E+00 kcal/mol
         MAE         9.958752634E-01 kcal/mol
     max. AE         5.327552830E+00 kcal/mol

Coordinates in bohr
s                   x[bohr]                   y[bohr]                   z[bohr]                      q[e]
+        1.0613319063223989       -0.3815218924730481        0.0000000000000000        0.5225510325000000
+        1.9318412597368813       -1.6050627425126616       -0.0000000000000000        0.0948963129000000
-        0.0024939736530017        0.2569483733394937       -0.6529267916933517       -0.6174473453000000
-        0.0024939736530017        0.2569483733394937        0.6529267916933517       -0.6174473453000000
+       -0.9758758396845049       -0.1284471242036651        0.0000000000000000        0.5225510325000000
+       -2.0024290863279406       -1.2243609793508576        0.0000000000000000        0.0948963129000000
