6
s                      x[A]                      y[A]                      z[A]                      q[e]
N        0.0750060333651438        0.0425767505540569       -0.4760023838696995        0.5225510325000000
N       -0.4173298607821047        1.3489608726848503       -0.4169947641605630        0.0948963128000000
O       -0.5240986457298668       -0.0101502998694120       -0.2936442301178330       -0.6174473453000000
O        0.5240986457298668       -0.0101502998694120       -0.2936442301178330       -0.6174473453000000
N        0.0750060333651438       -0.0425767505540569       -0.4760023838696995        0.5225510325000000
N       -0.4173298607821047       -1.3489608726848503       -0.4169947641605630        0.0948963128000000

        RMSE         6.456810151E+00 kcal/mol
         MAE         5.390424689E+00 kcal/mol
     max. AE         2.644505422E+01 kcal/mol

Coordinates in bohr
s                   x[bohr]                   y[bohr]                   z[bohr]                      q[e]
+        0.1417408608170738        0.0804583978591025       -0.8995141405787770        0.5225510325000000
+       -0.7886391408536215        2.5491666033329530       -0.7880059000133416        0.0948963128000000
-       -0.9904029031527960       -0.0191812868444591       -0.5549071732436195       -0.6174473453000000
-        0.9904029031527960       -0.0191812868444591       -0.5549071732436195       -0.6174473453000000
+        0.1417408608170738       -0.0804583978591025       -0.8995141405787770        0.5225510325000000
+       -0.7886391408536215       -2.5491666033329530       -0.7880059000133416        0.0948963128000000
