3
s                      x[A]                      y[A]                      z[A]                      q[e]
N        0.7660670932669001       -0.4702856080717464        0.0000000000000000        0.3613484133133580
O        0.0000000000000000        0.1066212702918450        0.0000000000000000       -0.7226967968243936
N       -0.7660670932669001       -0.3826861417946453        0.0000000000000000        0.3613484133133580

        RMSE         2.224450895E+00 kcal/mol
         MAE         1.678848019E+00 kcal/mol
     max. AE         9.415887173E+00 kcal/mol

Coordinates in bohr
s                   x[bohr]                   y[bohr]                   z[bohr]                      q[e]
+        1.4476570000000000       -0.8887110000000000        0.0000000000000000        0.3613484133133580
-        0.0000000000000000        0.2014850000000000        0.0000000000000000       -0.7226967968243936
+       -1.4476570000000000       -0.7231720000000000        0.0000000000000000        0.3613484133133580
