6
s                      x[A]                      y[A]                      z[A]                      q[e]
N        0.0144592237435850       -0.5144236427918989        0.0769760307828278        0.5225510325000000
N        1.4006231895449162       -0.5104771702811118       -0.4703822623272041        0.0948963128000000
O       -0.0478642031533164       -0.3191862538330270       -0.5478506154901011       -0.6174473453000000
O       -0.0478642031533164       -0.3191862538330270        0.5478506154901011       -0.6174473453000000
N       -0.0150431193854762       -0.4808377715922028        0.0769760307828278        0.5225510325000000
N       -1.3982943922192206       -0.3909376551563568       -0.4703822623272041        0.0948963128000000

        RMSE         7.322483151E+00 kcal/mol
         MAE         6.123444070E+00 kcal/mol
     max. AE         3.233424348E+01 kcal/mol

Coordinates in bohr
s                   x[bohr]                   y[bohr]                   z[bohr]                      q[e]
+        0.0273239728620926       -0.9721197973370369        0.1454636164043556        0.5225510325000000
+        2.6467942332050995       -0.9646620451300014       -0.8888936500716751        0.0948963128000000
-       -0.0904502351730429       -0.6031746027552850       -1.0352876209397950       -0.6174473453000000
-       -0.0904502351730429       -0.6031746027552850        1.0352876209397950       -0.6174473453000000
+       -0.0284273757111155       -0.9086516990847094        0.1454636164043556        0.5225510325000000
+       -2.6423934440578365       -0.7387651003741906       -0.8888936500716751        0.0948963128000000
