3
s                      x[A]                      y[A]                      z[A]                      q[e]
N        0.7120343958170186       -0.4370596293681984        0.0000000000000000        0.3379860774420776
O        0.0000000000000000        0.1279957961852276        0.0000000000000000       -0.6759721250818329
N       -0.7120343958170186       -0.5869083276452544        0.0000000000000000        0.3379860774420776

        RMSE         2.191076733E+00 kcal/mol
         MAE         1.688587425E+00 kcal/mol
     max. AE         9.832492989E+00 kcal/mol

Coordinates in bohr
s                   x[bohr]                   y[bohr]                   z[bohr]                      q[e]
+        1.3455500000000000       -0.8259230000000000        0.0000000000000000        0.3379860774420776
-        0.0000000000000000        0.2418770000000000        0.0000000000000000       -0.6759721250818329
+       -1.3455500000000000       -1.1090960000000001        0.0000000000000000        0.3379860774420776
