6
s                      x[A]                      y[A]                      z[A]                      q[e]
N        0.8963387983699372       -0.4328328708745303        0.0000000000000000        0.2314283515440728
N        0.6865704156323577       -0.7426246074621293        0.0000000000000000        0.1229317230114044
O        0.0002693325978009        0.0792826594094929       -0.1852120237345000       -0.3543600596543159
O        0.0002693325978009        0.0792826594094929        0.1852120237345000       -0.3543600596543159
N       -0.8986813896141312       -0.5175843442274446        0.0000000000000000        0.2314283515440728
N       -0.6719447241585227       -0.8151816879527732        0.0000000000000000        0.1229317230114044

        RMSE         9.848994069E-01 kcal/mol
         MAE         6.938574693E-01 kcal/mol
     max. AE         6.097488174E+00 kcal/mol

Coordinates in bohr
s                   x[bohr]                   y[bohr]                   z[bohr]                      q[e]
+        1.6938348445411469       -0.8179355840485145        0.0000000000000000        0.2314283515440728
+        1.2974300513869059       -1.4033571221290502        0.0000000000000000        0.1229317230114044
-        0.0005089648465017        0.1498225127818937       -0.3500000000000000       -0.3543600596543159
-        0.0005089648465017        0.1498225127818937        0.3500000000000000       -0.3543600596543159
+       -1.6982617004165692       -0.9780926574145596        0.0000000000000000        0.2314283515440728
+       -1.2697915001059141       -1.5404701327191666        0.0000000000000000        0.1229317230114044
