3
s                      x[A]                      y[A]                      z[A]                      q[e]
N        0.0000000000000000        0.6444902166470997       -0.5681204199576267        0.3379860774420776
O        0.0000000000000000        0.0000000000000000        0.1420301049894067       -0.6759721250818329
N        0.0000000000000000       -0.6444902166470997       -0.5681204199576267        0.3379860774420776

        RMSE         2.218518073E+00 kcal/mol
         MAE         1.723813659E+00 kcal/mol
     max. AE         8.100499484E+00 kcal/mol

Coordinates in bohr
s                   x[bohr]                   y[bohr]                   z[bohr]                      q[e]
+        0.0000000000000000        1.2179100000000000       -1.0735920000000001        0.3379860774420776
-        0.0000000000000000        0.0000000000000000        0.2683980000000000       -0.6759721250818329
+        0.0000000000000000       -1.2179100000000000       -1.0735920000000001        0.3379860774420776
