6
s                      x[A]                      y[A]                      z[A]                      q[e]
N        0.0000000000000000        0.9830844510688915       -0.2953465969208711        0.2314283515440728
N        0.0000000000000000        0.8326842199759511       -0.6379155169084997        0.1229317230114044
O       -0.1852120237345000        0.0092908764235964        0.0466017937477843       -0.3543600596543159
O        0.1852120237345000        0.0092908764235964        0.0466017937477843       -0.3543600596543159
N        0.0000000000000000       -0.9830844510688915       -0.2953465969208711        0.2314283515440728
N        0.0000000000000000       -0.8326842199759511       -0.6379155169084997        0.1229317230114044

        RMSE         1.481114165E+00 kcal/mol
         MAE         1.218867887E+00 kcal/mol
     max. AE         5.824527760E+00 kcal/mol

Coordinates in bohr
s                   x[bohr]                   y[bohr]                   z[bohr]                      q[e]
+        0.0000000000000000        1.8577603707162522       -0.5581241802664327        0.2314283515440728
+        0.0000000000000000        1.5735451247450281       -1.2054856181369267        0.1229317230114044
-       -0.3500000000000000        0.0175572119060703        0.0880646271383852       -0.3543600596543159
-        0.3500000000000000        0.0175572119060703        0.0880646271383852       -0.3543600596543159
+        0.0000000000000000       -1.8577603707162522       -0.5581241802664327        0.2314283515440728
+        0.0000000000000000       -1.5735451247450281       -1.2054856181369267        0.1229317230114044
