6
s                      x[A]                      y[A]                      z[A]                      q[e]
N        0.1561308955708100       -0.4785615785695534        0.0734781959263877        0.5225510325000000
N        1.3652047394950946       -0.3802835495001948       -0.3554822496752273        0.0948963128000000
O        0.0269879540902080       -0.2488045422918830       -0.4947737532876026       -0.6174473453000000
O        0.0269879540902080       -0.2488045422918830        0.4947737532876026       -0.6174473453000000
N       -0.1542773255233786       -0.5190641461641570        0.0734781959263877        0.5225510325000000
N       -1.3672339700777978       -0.5031170620768277       -0.3554822496752273        0.0948963128000000

        RMSE         4.655865035E+00 kcal/mol
         MAE         3.703916740E+00 kcal/mol
     max. AE         2.089089657E+01 kcal/mol

Coordinates in bohr
s                   x[bohr]                   y[bohr]                   z[bohr]                      q[e]
+        0.2950446323512875       -0.9043503176632243        0.1388536664936038        0.5225510325000000
+        2.5798630628227288       -0.7186317585723534       -0.6717640943477996        0.0948963128000000
-        0.0509998419169224       -0.4701724437015484       -0.9349868877784087       -0.6174473453000000
-        0.0509998419169224       -0.4701724437015484        0.9349868877784087       -0.6174473453000000
+       -0.2915418926072902       -0.9808890777948682        0.1388536664936038        0.5225510325000000
+       -2.5836977528694409       -0.9507534563701692       -0.6717640943477996        0.0948963128000000
