3
s                      x[A]                      y[A]                      z[A]                      q[e]
N        0.6848029365559403       -0.4708544735732166        0.0000000000000000        0.3613484133133580
O        0.0000000000000000        0.1269130996121968        0.0000000000000000       -0.7226967968243936
N       -0.6848029365559403       -0.5444487357927256        0.0000000000000000        0.3613484133133580

        RMSE         1.980260902E+00 kcal/mol
         MAE         1.520487985E+00 kcal/mol
     max. AE         8.540702612E+00 kcal/mol

Coordinates in bohr
s                   x[bohr]                   y[bohr]                   z[bohr]                      q[e]
+        1.2940900000000000       -0.8897860000000000        0.0000000000000000        0.3613484133133580
-        0.0000000000000000        0.2398310000000000        0.0000000000000000       -0.7226967968243936
+       -1.2940900000000000       -1.0288590000000000        0.0000000000000000        0.3613484133133580
