6
s                      x[A]                      y[A]                      z[A]                      q[e]
N       -0.0055818801656612       -0.5163875560049449        0.0778748099802960        0.5225510325000000
N        1.4107417813487968       -0.5237397612865190       -0.4911300013926668        0.0948963128000000
O       -0.0592939262348485       -0.3299913388035895       -0.5568776135549905       -0.6174473453000000
O       -0.0592939262348485       -0.3299913388035895        0.5568776135549905       -0.6174473453000000
N        0.0054693993574050       -0.4833932805794009        0.0778748099802960        0.5225510325000000
N       -1.4087536077746508       -0.4059332574281760       -0.4911300013926668        0.0948963128000000

        RMSE         7.864596781E+00 kcal/mol
         MAE         6.580007617E+00 kcal/mol
     max. AE         3.488800908E+01 kcal/mol

Coordinates in bohr
s                   x[bohr]                   y[bohr]                   z[bohr]                      q[e]
+       -0.0105482247782248       -0.9758310554438618        0.1471620629348293        0.5225510325000000
+        2.6659156004897362       -0.9897247098441814       -0.9281011946278620        0.0948963128000000
-       -0.1120492814869625       -0.6235932541119487       -1.0523461750174741       -0.6174473453000000
-       -0.1120492814869625       -0.6235932541119487        1.0523461750174741       -0.6174473453000000
+        0.0103356668562504       -0.9134809111816601        0.1471620629348293        0.5225510325000000
+       -2.6621584969447278       -0.7671026817542222       -0.9281011946278620        0.0948963128000000
