6
s                      x[A]                      y[A]                      z[A]                      q[e]
N        0.5722947976211779       -0.1795233546071872        0.0000000000000000        0.5225510325000000
N        1.0549465941047727       -0.8107653057788982       -0.0000000000000000        0.0948963129000000
O        0.0006924050705040        0.1388676296545301       -0.3455139784000000       -0.6174473453000000
O        0.0006924050705040        0.1388676296545301        0.3455139784000000       -0.6174473453000000
N       -0.5502206037788111       -0.1120788497130691        0.0000000000000000        0.5225510325000000
N       -1.0731801660743379       -0.7103534135811826        0.0000000000000000        0.0948963129000000

        RMSE         1.623456157E+00 kcal/mol
         MAE         1.295484311E+00 kcal/mol
     max. AE         6.625137629E+00 kcal/mol

Coordinates in bohr
s                   x[bohr]                   y[bohr]                   z[bohr]                      q[e]
+        1.0814804305283403       -0.3392499733310316        0.0000000000000000        0.5225510325000000
+        1.9935601398425442       -1.5321243799451885       -0.0000000000000000        0.0948963129000000
-        0.0013084559511308        0.2624217877385677       -0.6529267916933517       -0.6174473453000000
-        0.0013084559511308        0.2624217877385677        0.6529267916933517       -0.6174473453000000
+       -1.0397662497259996       -0.2117983304140482        0.0000000000000000        0.5225510325000000
+       -2.0280165971538469       -1.3423734039525104        0.0000000000000000        0.0948963129000000
