6
s                      x[A]                      y[A]                      z[A]                      q[e]
N        0.0000000000000000        0.9670770976313139       -0.4191682612907711        0.2314283515440728
N       -0.0000000000000000        0.7760493259417023       -0.7408545757301668        0.1229317230114044
O       -0.1852120237345000        0.0032340530240716        0.0702202230558216       -0.3543600596543159
O        0.1852120237345000        0.0032340530240716        0.0702202230558216       -0.3543600596543159
N       -0.0000000000000000       -0.9670770976313139       -0.4191682612907711        0.2314283515440728
N        0.0000000000000000       -0.7760493259417023       -0.7408545757301668        0.1229317230114044

        RMSE         8.211762498E-01 kcal/mol
         MAE         5.375324210E-01 kcal/mol
     max. AE         5.631759264E+00 kcal/mol

Coordinates in bohr
s                   x[bohr]                   y[bohr]                   z[bohr]                      q[e]
+        0.0000000000000000        1.8275108567258247       -0.7921132143239034        0.2314283515440728
+       -0.0000000000000000        1.4665206858759723       -1.4000122469222711        0.1229317230114044
-       -0.3500000000000000        0.0061114744907040        0.1326969900440621       -0.3543600596543159
-        0.3500000000000000        0.0061114744907040        0.1326969900440621       -0.3543600596543159
+       -0.0000000000000000       -1.8275108567258247       -0.7921132143239034        0.2314283515440728
+        0.0000000000000000       -1.4665206858759723       -1.4000122469222711        0.1229317230114044
