6
s                      x[A]                      y[A]                      z[A]                      q[e]
N        0.9512323291280366       -0.4122023462861274        0.0000000000000000        0.1979110689179275
N        0.6113281752310910       -0.8963593263093594        0.0000000000000000        0.1054997195048966
O        0.0043608397925498        0.1410451890696612       -0.2910474658684998       -0.3034107735216629
O        0.0043608397925498        0.1410451890696612        0.2910474658684998       -0.3034107735216629
N       -0.9557718336921732       -0.4966224478632103        0.0000000000000000        0.1979110689179275
N       -0.5919528078412659       -0.9630755876002172        0.0000000000000000        0.1054997195048966

        RMSE         1.145299003E+00 kcal/mol
         MAE         8.017044346E-01 kcal/mol
     max. AE         5.940858529E+00 kcal/mol

Coordinates in bohr
s                   x[bohr]                   y[bohr]                   z[bohr]                      q[e]
+        1.7975685837333502       -0.7789495427519095        0.0000000000000000        0.1979110689179275
+        1.1552428239626538       -1.6938736367245748        0.0000000000000000        0.1054997195048966
-        0.0082407928849174        0.2665367786550776       -0.5499999999999997       -0.3034107735216629
-        0.0082407928849174        0.2665367786550776        0.5499999999999997       -0.3034107735216629
+       -1.8061470041048342       -0.9384804142159267        0.0000000000000000        0.1979110689179275
+       -1.1186286860157577       -1.8199490986787796        0.0000000000000000        0.1054997195048966
