6
s                      x[A]                      y[A]                      z[A]                      q[e]
N        0.0529025494105220       -0.5058580353251975        0.0769760187331526        0.5225510325000000
N        1.4362933220900016       -0.4181373672426976       -0.4703819735648370        0.0948963128000000
O       -0.0211073927733988       -0.3147444010456832       -0.5478504889312141       -0.6174473453000000
O       -0.0211073927733988       -0.3147444010456832        0.5478504889312141       -0.6174473453000000
N       -0.0523482912133199       -0.5416273594815146        0.0769760187331526        0.5225510325000000
N       -1.4385038960317489       -0.5354967172620099       -0.4703819735648370        0.0948963128000000

        RMSE         6.372293286E+00 kcal/mol
         MAE         5.308224063E+00 kcal/mol
     max. AE         2.967550940E+01 kcal/mol

Coordinates in bohr
s                   x[bohr]                   y[bohr]                   z[bohr]                      q[e]
+        0.0999713297243870       -0.9559331451267945        0.1454635936337697        0.5225510325000000
+        2.7142010145740914       -0.7901651069086799       -0.8888931043898860        0.0948963128000000
-       -0.0398871915641915       -0.5947807174976036       -1.0352873817781600       -0.6174473453000000
-       -0.0398871915641915       -0.5947807174976036        1.0352873817781600       -0.6174473453000000
+       -0.0989239335288851       -1.0235273714749569        0.1454635936337697        0.5225510325000000
+       -2.7183783939040671       -1.0119421367069239       -0.8888931043898860        0.0948963128000000
