3
s                      x[A]                      y[A]                      z[A]                      q[e]
N        0.0000000000000000        0.6444902166470997       -0.5681204199576267        0.3613484133133580
O        0.0000000000000000        0.0000000000000000        0.1420301049894067       -0.7226967968243936
N        0.0000000000000000       -0.6444902166470997       -0.5681204199576267        0.3613484133133580

        RMSE         2.122983768E+00 kcal/mol
         MAE         1.640998370E+00 kcal/mol
     max. AE         7.768214451E+00 kcal/mol

Coordinates in bohr
s                   x[bohr]                   y[bohr]                   z[bohr]                      q[e]
+        0.0000000000000000        1.2179100000000000       -1.0735920000000001        0.3613484133133580
-        0.0000000000000000        0.0000000000000000        0.2683980000000000       -0.7226967968243936
+        0.0000000000000000       -1.2179100000000000       -1.0735920000000001        0.3613484133133580
