6
s                      x[A]                      y[A]                      z[A]                      q[e]
N        0.5985504476021635       -0.1398852218954153        0.0000000000000000        0.5225510325000000
N        1.1397758330629197       -0.7216877998381106       -0.0000000000000000        0.0948963129000000
O       -0.0010692367059935        0.1219517471092644       -0.3455139784000000       -0.6174473453000000
O       -0.0010692367059935        0.1219517471092644        0.3455139784000000       -0.6174473453000000
N       -0.5729405249955796       -0.0654836301500059        0.0000000000000000        0.5225510325000000
N       -1.1599945684115971       -0.6010083332933952        0.0000000000000000        0.0948963129000000

        RMSE         7.683433734E-01 kcal/mol
         MAE         6.015631465E-01 kcal/mol
     max. AE         3.151104259E+00 kcal/mol

Coordinates in bohr
s                   x[bohr]                   y[bohr]                   z[bohr]                      q[e]
+        1.1310964182382852       -0.2643447583812317        0.0000000000000000        0.5225510325000000
+        2.1538641689044598       -1.3637922897782573       -0.0000000000000000        0.0948963129000000
-       -0.0020205645376144        0.2304554025576031       -0.6529267916933517       -0.6174473453000000
-       -0.0020205645376144        0.2304554025576031        0.6529267916933517       -0.6174473453000000
+       -1.0827006784176705       -0.1237461266842841        0.0000000000000000        0.5225510325000000
+       -2.1920720413165729       -1.1357411490423948        0.0000000000000000        0.0948963129000000
