3
s                      x[A]                      y[A]                      z[A]                      q[e]
N        0.0000000000000000        0.8669160985447568       -0.4130185795102496        0.3613484133133580
O        0.0000000000000000        0.0000000000000000        0.1032546448775624       -0.7226967968243936
N        0.0000000000000000       -0.8669160985447568       -0.4130185795102496        0.3613484133133580

        RMSE         2.533994890E+00 kcal/mol
         MAE         1.931337735E+00 kcal/mol
     max. AE         9.569105782E+00 kcal/mol

Coordinates in bohr
s                   x[bohr]                   y[bohr]                   z[bohr]                      q[e]
+        0.0000000000000000        1.6382340000000000       -0.7804920000000000        0.3613484133133580
-        0.0000000000000000        0.0000000000000000        0.1951230000000000       -0.7226967968243936
+        0.0000000000000000       -1.6382340000000000       -0.7804920000000000        0.3613484133133580
