3
s                      x[A]                      y[A]                      z[A]                      q[e]
N        0.0000000000000000        0.6688810526413014       -0.5497801961902258        0.3379860774420776
O        0.0000000000000000        0.0000000000000000        0.1374453136361618       -0.6759721250818329
N        0.0000000000000000       -0.6688810526413014       -0.5497801961902258        0.3379860774420776

        RMSE         2.178639254E+00 kcal/mol
         MAE         1.700023471E+00 kcal/mol
     max. AE         8.107321399E+00 kcal/mol

Coordinates in bohr
s                   x[bohr]                   y[bohr]                   z[bohr]                      q[e]
+        0.0000000000000000        1.2640020000000001       -1.0389340000000000        0.3379860774420776
-        0.0000000000000000        0.0000000000000000        0.2597340000000000       -0.6759721250818329
+        0.0000000000000000       -1.2640020000000001       -1.0389340000000000        0.3379860774420776
