3
s                      x[A]                      y[A]                      z[A]                      q[e]
N        0.7443597149080061       -0.5525985940142542        0.0000000000000000        0.3613484133133580
O        0.0000000000000000        0.1285837120662820        0.0000000000000000       -0.7226967968243936
N       -0.7443597149080061       -0.4760726900476335        0.0000000000000000        0.3613484133133580

        RMSE         2.163270627E+00 kcal/mol
         MAE         1.685812515E+00 kcal/mol
     max. AE         9.060982616E+00 kcal/mol

Coordinates in bohr
s                   x[bohr]                   y[bohr]                   z[bohr]                      q[e]
+        1.4066360000000000       -1.0442600000000000        0.0000000000000000        0.3613484133133580
-        0.0000000000000000        0.2429880000000000        0.0000000000000000       -0.7226967968243936
+       -1.4066360000000000       -0.8996470000000000        0.0000000000000000        0.3613484133133580
