3
s                      x[A]                      y[A]                      z[A]                      q[e]
N        0.8010933328411475       -0.3338938862620285        0.0000000000000000        0.3613484133133580
O        0.0000000000000000        0.0956762980435573        0.0000000000000000       -0.7226967968243936
N       -0.8010933328411475       -0.4315149105547981        0.0000000000000000        0.3613484133133580

        RMSE         2.467547654E+00 kcal/mol
         MAE         1.896078567E+00 kcal/mol
     max. AE         9.579083813E+00 kcal/mol

Coordinates in bohr
s                   x[bohr]                   y[bohr]                   z[bohr]                      q[e]
+        1.5138469999999999       -0.6309680000000000        0.0000000000000000        0.3613484133133580
-        0.0000000000000000        0.1808020000000000        0.0000000000000000       -0.7226967968243936
+       -1.5138469999999999       -0.8154450000000000        0.0000000000000000        0.3613484133133580
