3
s                      x[A]                      y[A]                      z[A]                      q[e]
N        0.0000000000000000        0.6780919111702234       -0.5977405851476693        0.3613484133133580
O        0.0000000000000000        0.0000000000000000        0.1494354108755226       -0.7226967968243936
N        0.0000000000000000       -0.6780919111702234       -0.5977405851476693        0.3613484133133580

        RMSE         2.443049973E+00 kcal/mol
         MAE         1.903495081E+00 kcal/mol
     max. AE         9.240021428E+00 kcal/mol

Coordinates in bohr
s                   x[bohr]                   y[bohr]                   z[bohr]                      q[e]
+        0.0000000000000000        1.2814080000000001       -1.1295660000000001        0.3613484133133580
-        0.0000000000000000        0.0000000000000000        0.2823920000000000       -0.7226967968243936
+        0.0000000000000000       -1.2814080000000001       -1.1295660000000001        0.3613484133133580
