6
s                      x[A]                      y[A]                      z[A]                      q[e]
N        0.0759878992581903        0.0569104698195121       -0.5064533874522152        0.5225510325000000
N       -0.4454768714690642        1.4053880812703374       -0.4515764975761547        0.0948963128000000
O       -0.5368310419514749       -0.0222711600285358       -0.3033647535495527       -0.6174473453000000
O        0.5368310419514749       -0.0222711600285358       -0.3033647535495527       -0.6174473453000000
N        0.0759878992581903       -0.0569104698195121       -0.5064533874522152        0.5225510325000000
N       -0.4454768714690642       -1.4053880812703374       -0.4515764975761547        0.0948963128000000

        RMSE         6.282424672E+00 kcal/mol
         MAE         5.222984023E+00 kcal/mol
     max. AE         2.815255486E+01 kcal/mol

Coordinates in bohr
s                   x[bohr]                   y[bohr]                   z[bohr]                      q[e]
+        0.1435963184468597        0.1075452016300112       -0.9570581975950671        0.5225510325000000
+       -0.8418292823023097        2.6557985735836063       -0.8533559051124031        0.0948963128000000
-       -1.0144636449324496       -0.0420863929501761       -0.5732763003256651       -0.6174473453000000
-        1.0144636449324496       -0.0420863929501761       -0.5732763003256651       -0.6174473453000000
+        0.1435963184468597       -0.1075452016300112       -0.9570581975950671        0.5225510325000000
+       -0.8418292823023097       -2.6557985735836063       -0.8533559051124031        0.0948963128000000
