6
s                      x[A]                      y[A]                      z[A]                      q[e]
N       -0.0236914044594676       -0.4843246290491331        0.0786020915899996        0.5225510325000000
N        1.4142082229467681       -0.4234680606055555       -0.5069496122475481        0.0948963128000000
O       -0.0430897659904453       -0.3406319157519470       -0.5636768557192908       -0.6174473453000000
O       -0.0430897659904453       -0.3406319157519470        0.5636768557192908       -0.6174473453000000
N        0.0232851430438388       -0.5169360502077202        0.0786020915899996        0.5225510325000000
N       -1.4157277930003518       -0.5393108198198945       -0.5069496122475481        0.0948963128000000

        RMSE         8.086788178E+00 kcal/mol
         MAE         6.806889704E+00 kcal/mol
     max. AE         3.606487903E+01 kcal/mol

Coordinates in bohr
s                   x[bohr]                   y[bohr]                   z[bohr]                      q[e]
+       -0.0447702659558440       -0.9152409047168183        0.1485364259932513        0.5225510325000000
+        2.6724662257397966       -0.8002386574232772       -0.9579959265549074        0.0948963128000000
-       -0.0814278565320086       -0.6437010303612041       -1.0651948805686666       -0.6174473453000000
-       -0.0814278565320086       -0.6437010303612041        1.0651948805686666       -0.6174473453000000
+        0.0440025431449649       -0.9768675592685084        0.1485364259932513        0.5225510325000000
+       -2.6753377969695169       -1.0191497459557342       -0.9579959265549074        0.0948963128000000
