3
s                      x[A]                      y[A]                      z[A]                      q[e]
N        0.0000000000000000        0.7262316912020840       -0.5010509127456788        0.3613484133133580
O        0.0000000000000000        0.0000000000000000        0.1252625958921171       -0.7226967968243936
N        0.0000000000000000       -0.7262316912020840       -0.5010509127456788        0.3613484133133580

        RMSE         2.066706229E+00 kcal/mol
         MAE         1.594973265E+00 kcal/mol
     max. AE         8.466813961E+00 kcal/mol

Coordinates in bohr
s                   x[bohr]                   y[bohr]                   z[bohr]                      q[e]
+        0.0000000000000000        1.3723790000000000       -0.9468490000000001        0.3613484133133580
-        0.0000000000000000        0.0000000000000000        0.2367120000000000       -0.7226967968243936
+        0.0000000000000000       -1.3723790000000000       -0.9468490000000001        0.3613484133133580
