6
s                      x[A]                      y[A]                      z[A]                      q[e]
N        0.0000000000000000        0.5310006821276666       -0.0510977925203916        0.5225510325000000
N       -0.0000000000000000        1.1241037840030539       -0.5799152166978712        0.0948963129000000
O       -0.3455139784000000       -0.0027641729262787        0.1055666342039273       -0.6174473453000000
O        0.3455139784000000       -0.0027641729262787        0.1055666342039273       -0.6174473453000000
N        0.0000000000000000       -0.5310006821276666       -0.0510977925203916        0.5225510325000000
N        0.0000000000000000       -1.1241037840030539       -0.5799152166978712        0.0948963129000000

        RMSE         1.761689315E+00 kcal/mol
         MAE         1.387649134E+00 kcal/mol
     max. AE         5.789171477E+00 kcal/mol

Coordinates in bohr
s                   x[bohr]                   y[bohr]                   z[bohr]                      q[e]
+        0.0000000000000000        1.0034458616525792       -0.0965608334790077        0.5225510325000000
+       -0.0000000000000000        2.1242482883565743       -1.0958809355445049        0.0948963129000000
-       -0.6529267916933517       -0.0052235297940721        0.1994920266318115       -0.6174473453000000
-        0.6529267916933517       -0.0052235297940721        0.1994920266318115       -0.6174473453000000
+        0.0000000000000000       -1.0034458616525792       -0.0965608334790077        0.5225510325000000
+        0.0000000000000000       -2.1242482883565743       -1.0958809355445049        0.0948963129000000
