6
s                      x[A]                      y[A]                      z[A]                      q[e]
N        0.0769760260107684        0.0341972108657207       -0.5104619972193056        0.5225510325000000
N       -0.4703821479680457        1.4195714312704413       -0.4635160588062938        0.0948963128000000
O       -0.5478505653687260       -0.0341529812538306       -0.3172518325913059       -0.6174473453000000
O        0.5478505653687260       -0.0341529812538306       -0.3172518325913059       -0.6174473453000000
N        0.0769760260107684       -0.0341972108657207       -0.5104619972193056        0.5225510325000000
N       -0.4703821479680457       -1.4195714312704413       -0.4635160588062938        0.0948963128000000

        RMSE         6.828610989E+00 kcal/mol
         MAE         5.704286124E+00 kcal/mol
     max. AE         3.101165258E+01 kcal/mol

Coordinates in bohr
s                   x[bohr]                   y[bohr]                   z[bohr]                      q[e]
+        0.1454636073864704        0.0646233627907428       -0.9646333721987032        0.5225510325000000
+       -0.8888934339641859        2.6826012206253145       -0.8759184058955003        0.0948963128000000
-       -1.0352875262241232       -0.0645397809376351       -0.5995190763971641       -0.6174473453000000
-        1.0352875262241232       -0.0645397809376351       -0.5995190763971641       -0.6174473453000000
+        0.1454636073864704       -0.0646233627907428       -0.9646333721987032        0.5225510325000000
+       -0.8888934339641859       -2.6826012206253145       -0.8759184058955003        0.0948963128000000
