3
s                      x[A]                      y[A]                      z[A]                      q[e]
N        0.6623102592164120       -0.4909806704266287        0.0000000000000000        0.3613484133133580
O        0.0000000000000000        0.1316158974834211        0.0000000000000000       -0.7226967968243936
N       -0.6623102592164120       -0.5619449219091077        0.0000000000000000        0.3613484133133580

        RMSE         1.973819638E+00 kcal/mol
         MAE         1.522850495E+00 kcal/mol
     max. AE         7.980785132E+00 kcal/mol

Coordinates in bohr
s                   x[bohr]                   y[bohr]                   z[bohr]                      q[e]
+        1.2515849999999999       -0.9278189999999999        0.0000000000000000        0.3613484133133580
-        0.0000000000000000        0.2487180000000000        0.0000000000000000       -0.7226967968243936
+       -1.2515849999999999       -1.0619220000000000        0.0000000000000000        0.3613484133133580
