3
s                      x[A]                      y[A]                      z[A]                      q[e]
N        0.0000000000000000        0.8152673444289434       -0.4039961080683261        0.3613484133133580
O        0.0000000000000000        0.0000000000000000        0.1009987624284762       -0.7226967968243936
N        0.0000000000000000       -0.8152673444289434       -0.4039961080683261        0.3613484133133580

        RMSE         2.409656712E+00 kcal/mol
         MAE         1.840247003E+00 kcal/mol
     max. AE         9.378351601E+00 kcal/mol

Coordinates in bohr
s                   x[bohr]                   y[bohr]                   z[bohr]                      q[e]
+        0.0000000000000000        1.5406320000000000       -0.7634420000000000        0.3613484133133580
-        0.0000000000000000        0.0000000000000000        0.1908600000000000       -0.7226967968243936
+        0.0000000000000000       -1.5406320000000000       -0.7634420000000000        0.3613484133133580
