3
s                      x[A]                      y[A]                      z[A]                      q[e]
N        0.0000000000000000        0.8387083073299925       -0.4487491539518987        0.3379860774420776
O        0.0000000000000000        0.0000000000000000        0.1121871561936720       -0.6759721250818329
N        0.0000000000000000       -0.8387083073299925       -0.4487491539518987        0.3379860774420776

        RMSE         2.475213029E+00 kcal/mol
         MAE         1.876834693E+00 kcal/mol
     max. AE         1.083667027E+01 kcal/mol

Coordinates in bohr
s                   x[bohr]                   y[bohr]                   z[bohr]                      q[e]
+        0.0000000000000000        1.5849290000000000       -0.8480130000000000        0.3379860774420776
-        0.0000000000000000        0.0000000000000000        0.2120030000000000       -0.6759721250818329
+        0.0000000000000000       -1.5849290000000000       -0.8480130000000000        0.3379860774420776
