6
s                      x[A]                      y[A]                      z[A]                      q[e]
N        0.0790939090493694       -0.0565669708970023       -0.4858063024067230        0.5225510325000000
N       -0.5172507219145310        1.3974254291971253       -0.4861796103150171        0.0948963128000000
O       -0.5680683571842380       -0.0667479100309994       -0.3463859239447983       -0.6174473453000000
O        0.5680683571842380       -0.0667479100309994       -0.3463859239447983       -0.6174473453000000
N        0.0790939090493694        0.0565669708970023       -0.4858063024067230        0.5225510325000000
N       -0.5172507219145310       -1.3974254291971253       -0.4861796103150171        0.0948963128000000

        RMSE         8.973415054E+00 kcal/mol
         MAE         7.525573780E+00 kcal/mol
     max. AE         3.927733294E+01 kcal/mol

Coordinates in bohr
s                   x[bohr]                   y[bohr]                   z[bohr]                      q[e]
+        0.1494658262951786       -0.1068960827420778       -0.9180408615700506        0.5225510325000000
+       -0.9774622026138112        2.6407513419329263       -0.9187463112771940        0.0948963128000000
-       -1.0734936156169637       -0.1261352694052882       -0.6545745299693337       -0.6174473453000000
-        1.0734936156169637       -0.1261352694052882       -0.6545745299693337       -0.6174473453000000
+        0.1494658262951786        0.1068960827420778       -0.9180408615700506        0.5225510325000000
+       -0.9774622026138112       -2.6407513419329263       -0.9187463112771940        0.0948963128000000
