6
s                      x[A]                      y[A]                      z[A]                      q[e]
N        0.2367162567775704       -0.4134828097656793        0.0748500868764864        0.5225510325000000
N        1.2503352606705105       -0.3431728058519839       -0.2398419595777148        0.0948963128000000
O        0.0791124890794784       -0.1956845490979532       -0.4300278632991490       -0.6174473453000000
O        0.0791124890794784       -0.1956845490979532        0.4300278632991490       -0.6174473453000000
N       -0.2340577076492189       -0.4601448240537344        0.0748500868764864        0.5225510325000000
N       -1.2500149516220609       -0.4742111001198012       -0.2398419595777148        0.0948963128000000

        RMSE         4.987582176E+00 kcal/mol
         MAE         3.863755443E+00 kcal/mol
     max. AE         1.904777551E+01 kcal/mol

Coordinates in bohr
s                   x[bohr]                   y[bohr]                   z[bohr]                      q[e]
+        0.4473288947531585       -0.7813692680419134        0.1414461646632844        0.5225510325000000
+        2.3627912076701874       -0.6485026167651611       -0.4532356169950081        0.0948963128000000
-        0.1495009374634876       -0.3697902047788373       -0.8126348879512094       -0.6174473453000000
-        0.1495009374634876       -0.3697902047788373        0.8126348879512094       -0.6174473453000000
+       -0.4423049650094995       -0.8695476955085375        0.1414461646632844        0.5225510325000000
+       -2.3621859112931118       -0.8961291048784861       -0.4532356169950081        0.0948963128000000
