6
s                      x[A]                      y[A]                      z[A]                      q[e]
N        0.9065550690548847       -0.4185744566980187        0.0000000000000000        0.2314283515440728
N        0.7025367038655186       -0.7321828129638531        0.0000000000000000        0.1229317230114044
O        0.0011915935211988        0.0769254205611448       -0.1852120237345000       -0.3543600596543159
O        0.0011915935211988        0.0769254205611448        0.1852120237345000       -0.3543600596543159
N       -0.9092066447693194       -0.5050763575005156        0.0000000000000000        0.2314283515440728
N       -0.6873988202839895       -0.8063652279411361        0.0000000000000000        0.1229317230114044

        RMSE         9.221166070E-01 kcal/mol
         MAE         6.360492761E-01 kcal/mol
     max. AE         6.021251439E+00 kcal/mol

Coordinates in bohr
s                   x[bohr]                   y[bohr]                   z[bohr]                      q[e]
+        1.7131407981592410       -0.7909910862715623        0.0000000000000000        0.2314283515440728
+        1.3276019633877001       -1.3836249902689959        0.0000000000000000        0.1229317230114044
-        0.0022517854079357        0.1453679769462261       -0.3500000000000000       -0.3543600596543159
-        0.0022517854079357        0.1453679769462261        0.3500000000000000       -0.3543600596543159
+       -1.7181515500604381       -0.9544559881198021        0.0000000000000000        0.2314283515440728
+       -1.2989955092995453       -1.5238094379011216        0.0000000000000000        0.1229317230114044
