3
s                      x[A]                      y[A]                      z[A]                      q[e]
N        0.8015145579008408       -0.3246147638729301        0.0000000000000000        0.3379860774420776
O        0.0000000000000000        0.1041690630976002        0.0000000000000000       -0.6759721250818329
N       -0.8015145579008408       -0.5087382700850819        0.0000000000000000        0.3379860774420776

        RMSE         2.456272027E+00 kcal/mol
         MAE         1.858045553E+00 kcal/mol
     max. AE         1.042614662E+01 kcal/mol

Coordinates in bohr
s                   x[bohr]                   y[bohr]                   z[bohr]                      q[e]
+        1.5146430000000000       -0.6134330000000000        0.0000000000000000        0.3379860774420776
-        0.0000000000000000        0.1968510000000000        0.0000000000000000       -0.6759721250818329
+       -1.5146430000000000       -0.9613760000000000        0.0000000000000000        0.3379860774420776
