6
s                      x[A]                      y[A]                      z[A]                      q[e]
N        0.9669888502444310       -0.5141904625230881        0.0000000000000000        0.2314283515440728
N        0.7555272733790650       -0.8228289176188733        0.0000000000000000        0.1229317230114044
O       -0.0000044647542325        0.0703684732938229       -0.1852120237345000       -0.3543600596543159
O       -0.0000044647542325        0.0703684732938229        0.1852120237345000       -0.3543600596543159
N       -0.9590481518657339       -0.3264249442016235       -0.0000000000000000        0.2314283515440728
N       -0.7892563522561457       -0.6598082659794797        0.0000000000000000        0.1229317230114044

        RMSE         8.483664033E-01 kcal/mol
         MAE         5.762175167E-01 kcal/mol
     max. AE         5.702681019E+00 kcal/mol

Coordinates in bohr
s                   x[bohr]                   y[bohr]                   z[bohr]                      q[e]
+        1.8273440933333287       -0.9716791504911239        0.0000000000000000        0.2314283515440728
+        1.4277396270003377       -1.5549213024065720        0.0000000000000000        0.1229317230114044
-       -0.0000084371627170        0.1329771423919186       -0.3500000000000000       -0.3543600596543159
-       -0.0000084371627170        0.1329771423919186        0.3500000000000000       -0.3543600596543159
+       -1.8123383481527240       -0.6168537450589218       -0.0000000000000000        0.2314283515440728
+       -1.4914783485419849       -1.2468569180144504        0.0000000000000000        0.1229317230114044
