3
s                      x[A]                      y[A]                      z[A]                      q[e]
N        0.0000000000000000        0.7476474929178989       -0.4804696234910905        0.3379860774420776
O        0.0000000000000000        0.0000000000000000        0.1201174058727726       -0.6759721250818329
N        0.0000000000000000       -0.7476474929178989       -0.4804696234910905        0.3379860774420776

        RMSE         2.197604225E+00 kcal/mol
         MAE         1.676680642E+00 kcal/mol
     max. AE         9.400808002E+00 kcal/mol

Coordinates in bohr
s                   x[bohr]                   y[bohr]                   z[bohr]                      q[e]
+        0.0000000000000000        1.4128490000000000       -0.9079560000000000        0.3379860774420776
-        0.0000000000000000        0.0000000000000000        0.2269890000000000       -0.6759721250818329
+        0.0000000000000000       -1.4128490000000000       -0.9079560000000000        0.3379860774420776
