6
s                      x[A]                      y[A]                      z[A]                      q[e]
N       -0.0554400662387568       -0.5329837232717940        0.0782275954924343        0.5225510325000000
N        1.3611354829629010       -0.7098744528673699       -0.4988983256129593        0.0948963128000000
O       -0.1163631605460327       -0.3068021685980638       -0.5602250272173164       -0.6174473453000000
O       -0.1163631605460327       -0.3068021685980638        0.5602250272173164       -0.6174473453000000
N        0.0620700106933565       -0.4644101697411973        0.0782275954924343        0.5225510325000000
N       -1.3648790405531501       -0.5067542597600913       -0.4988983256129593        0.0948963128000000

        RMSE         8.527654287E+00 kcal/mol
         MAE         7.053559415E+00 kcal/mol
     max. AE         3.783388694E+01 kcal/mol

Coordinates in bohr
s                   x[bohr]                   y[bohr]                   z[bohr]                      q[e]
+       -0.1047665415684912       -1.0071932663104946        0.1478287309338002        0.5225510325000000
+        2.5721732824426526       -1.3414682993785507       -0.9427811998579756        0.0948963128000000
-       -0.2198945045246816       -0.5797720733468785       -1.0586718700678857       -0.6174473453000000
-       -0.2198945045246816       -0.5797720733468785        1.0586718700678857       -0.6174473453000000
+        0.1172953208146825       -0.8776080306882450        0.1478287309338002        0.5225510325000000
+       -2.5792475810231021       -0.9576267638556871       -0.9427811998579756        0.0948963128000000
