6
s                      x[A]                      y[A]                      z[A]                      q[e]
N        0.2680287748971916       -0.4013369801228058        0.0765010818256135        0.5225510325000000
N        1.2377251555845721       -0.3398222235216600       -0.2182063953897783        0.0948963128000000
O        0.0936035604496117       -0.1877911668322444       -0.4143250459689582       -0.6174473453000000
O        0.0936035604496117       -0.1877911668322444        0.4143250459689582       -0.6174473453000000
N       -0.2652455233810121       -0.4507347466470151        0.0765010818256135        0.5225510325000000
N       -1.2366337034805279       -0.4730985468798403       -0.2182063953897783        0.0948963128000000

        RMSE         5.276711471E+00 kcal/mol
         MAE         4.099751299E+00 kcal/mol
     max. AE         1.896764726E+01 kcal/mol

Coordinates in bohr
s                   x[bohr]                   y[bohr]                   z[bohr]                      q[e]
+        0.5065009782976784       -0.7584169764504153        0.1445660929516489        0.5225510325000000
+        2.3389615626445210       -0.6421709338000505       -0.4123503261100446        0.0948963128000000
-        0.1768850936175024       -0.3548738740931018       -0.7829608637990559       -0.6174473453000000
-        0.1768850936175024       -0.3548738740931018        0.7829608637990559       -0.6174473453000000
+       -0.5012413951938337       -0.8517652263904796        0.1445660929516489        0.5225510325000000
+       -2.3368990170888226       -0.8940266839549693       -0.4123503261100446        0.0948963128000000
