6
s                      x[A]                      y[A]                      z[A]                      q[e]
N        0.5356025505381932       -0.2311118802300292        0.0000000000000000        0.5225510325000000
N        0.9455043871067917       -0.9118465142436074       -0.0000000000000000        0.0948963129000000
O        0.0027059801457121        0.1485245289756567       -0.3455139784000000       -0.6174473453000000
O        0.0027059801457121        0.1485245289756567        0.3455139784000000       -0.6174473453000000
N       -0.4957268020070258       -0.1049740553787242        0.0000000000000000        0.5225510325000000
N       -0.9795130328845429       -0.7353469929174767        0.0000000000000000        0.0948963129000000

        RMSE         2.023560948E+00 kcal/mol
         MAE         1.588692248E+00 kcal/mol
     max. AE         6.809089144E+00 kcal/mol

Coordinates in bohr
s                   x[bohr]                   y[bohr]                   z[bohr]                      q[e]
+        1.0121421326138704       -0.4367381579743667        0.0000000000000000        0.5225510325000000
+        1.7867443420506961       -1.7231401803737985       -0.0000000000000000        0.0948963129000000
-        0.0051135613763223        0.2806706826766167       -0.6529267916933517       -0.6174473453000000
-        0.0051135613763223        0.2806706826766167        0.6529267916933517       -0.6174473453000000
+       -0.9367878888423369       -0.1983722149444319        0.0000000000000000        0.5225510325000000
+       -1.8510113684683536       -1.3896044237930083        0.0000000000000000        0.0948963129000000
