6
s                      x[A]                      y[A]                      z[A]                      q[e]
N        0.5417240917548597        0.0049370791124827        0.0000000000000000        0.5225510325000000
N        1.1821515966934275       -0.4654582530136673        0.0000000000000000        0.0948963129000000
O       -0.0044580537973641        0.1104533773719748       -0.3455139784000000       -0.6174473453000000
O       -0.0044580537973641        0.1104533773719748        0.3455139784000000       -0.6174473453000000
N       -0.5982333432394794       -0.1516395580564393        0.0000000000000000        0.5225510325000000
N       -1.1387026024439326       -0.7341446116164062        0.0000000000000000        0.0948963129000000

        RMSE         1.417143134E+00 kcal/mol
         MAE         1.077437638E+00 kcal/mol
     max. AE         6.309321595E+00 kcal/mol

Coordinates in bohr
s                   x[bohr]                   y[bohr]                   z[bohr]                      q[e]
+        1.0237101689790720        0.0093297273823107        0.0000000000000000        0.5225510325000000
+        2.2339427565232559       -0.8795886210298869        0.0000000000000000        0.0948963129000000
-       -0.0084245007295754        0.2087266328648734       -0.6529267916933517       -0.6174473453000000
-       -0.0084245007295754        0.2087266328648734        0.6529267916933517       -0.6174473453000000
+       -1.1304971778396244       -0.2865572345121325        0.0000000000000000        0.5225510325000000
+       -2.1518360569651183       -1.3873322524356133        0.0000000000000000        0.0948963129000000
