6
s                      x[A]                      y[A]                      z[A]                      q[e]
N        1.0638463135637390       -0.3560082012151592        0.0000000000000000        0.2314283515440728
N        0.9102082602477932       -0.6971372721363965        0.0000000000000000        0.1229317230114044
O        0.0088251247451257        0.0486094259549006       -0.1852120237345000       -0.3543600596543159
O        0.0088251247451257        0.0486094259549006        0.1852120237345000       -0.3543600596543159
N       -1.0554285258361573       -0.2370429095669619       -0.0000000000000000        0.2314283515440728
N       -0.9326327659653584       -0.5904476291337118        0.0000000000000000        0.1229317230114044

        RMSE         1.341720995E+00 kcal/mol
         MAE         1.093960356E+00 kcal/mol
     max. AE         5.003607471E+00 kcal/mol

Coordinates in bohr
s                   x[bohr]                   y[bohr]                   z[bohr]                      q[e]
+        2.0103781722133984       -0.6727579987135337        0.0000000000000000        0.2314283515440728
+        1.7200443289977727       -1.3173985161865522        0.0000000000000000        0.1229317230114044
-        0.0166770687912884        0.0918585021704836       -0.3500000000000000       -0.3543600596543159
-        0.0166770687912884        0.0918585021704836        0.3500000000000000       -0.3543600596543159
+       -1.9944708588260287       -0.4479461790632253       -0.0000000000000000        0.2314283515440728
+       -1.7624205033027340       -1.1157843104886100        0.0000000000000000        0.1229317230114044
