6
s                      x[A]                      y[A]                      z[A]                      q[e]
N        0.0737617199710402        0.2674039938748862       -0.4802700405470265        0.5225510325000000
N       -0.2652074775181942        1.3300769707196278       -0.4433722816694062        0.0948963128000000
O       -0.4461854787040966        0.0530058540999337       -0.2010205711063263       -0.6174473453000000
O        0.4461854787040966        0.0530058540999337       -0.2010205711063263       -0.6174473453000000
N        0.0737617199710402       -0.2674039938748862       -0.4802700405470265        0.5225510325000000
N       -0.2652074775181942       -1.3300769707196278       -0.4433722816694062        0.0948963128000000

        RMSE         4.270954386E+00 kcal/mol
         MAE         3.245098473E+00 kcal/mol
     max. AE         2.572611710E+01 kcal/mol

Coordinates in bohr
s                   x[bohr]                   y[bohr]                   z[bohr]                      q[e]
+        0.1393894492879791        0.5053203132771374       -0.9075788428964064        0.5225510325000000
+       -0.5011694989329013        2.5134812004386875       -0.8378521839745239        0.0948963128000000
-       -0.8431683559070388        0.1001665472948507       -0.3798738249740778       -0.6174473453000000
-        0.8431683559070388        0.1001665472948507       -0.3798738249740778       -0.6174473453000000
+        0.1393894492879791       -0.5053203132771374       -0.9075788428964064        0.5225510325000000
+       -0.5011694989329013       -2.5134812004386875       -0.8378521839745239        0.0948963128000000
