6
s                      x[A]                      y[A]                      z[A]                      q[e]
N        0.1428698015833523       -0.4863784928597040        0.0731395116350057        0.5225510325000000
N        1.3057497883733278       -0.4774359266791689       -0.3239833324905292        0.0948963128000000
O        0.0141357999426022       -0.2391621985326342       -0.4788583515748561       -0.6174473453000000
O        0.0141357999426022       -0.2391621985326342        0.4788583515748561       -0.6174473453000000
N       -0.1450457718646956       -0.4464329946736305        0.0731395116350057        0.5225510325000000
N       -1.3040574162572713       -0.3512392904229599       -0.3239833324905292        0.0948963128000000

        RMSE         4.719396036E+00 kcal/mol
         MAE         3.783432647E+00 kcal/mol
     max. AE         1.838374695E+01 kcal/mol

Coordinates in bohr
s                   x[bohr]                   y[bohr]                   z[bohr]                      q[e]
+        0.2699847965910370       -0.9191221448177864        0.1382136459398970        0.5225510325000000
+        2.4675094884001076       -0.9022231438777936       -0.6122397676202431        0.0948963128000000
-        0.0267127904557807       -0.4519510547890507       -0.9049111373646753       -0.6174473453000000
-        0.0267127904557807       -0.4519510547890507        0.9049111373646753       -0.6174473453000000
+       -0.2740967844799113       -0.8436360933011350        0.1382136459398970        0.5225510325000000
+       -2.4643113685983997       -0.6637460633995369       -0.6122397676202431        0.0948963128000000
