6
s                      x[A]                      y[A]                      z[A]                      q[e]
N        1.0194154023427286       -0.4422068457518201        0.0000000000000000        0.2314283515440728
N        0.8361352972745879       -0.7683695314479484        0.0000000000000000        0.1229317230114044
O        0.0044264044780278        0.0543634921699656       -0.1852120237345000       -0.3543600596543159
O        0.0044264044780278        0.0543634921699656        0.1852120237345000       -0.3543600596543159
N       -1.0058710437739018       -0.2238892203702327       -0.0000000000000000        0.2314283515440728
N       -0.8774597794998895       -0.5752924668860410        0.0000000000000000        0.1229317230114044

        RMSE         1.133669357E+00 kcal/mol
         MAE         9.160824910E-01 kcal/mol
     max. AE         4.728331142E+00 kcal/mol

Coordinates in bohr
s                   x[bohr]                   y[bohr]                   z[bohr]                      q[e]
+        1.9264159185011576       -0.8356498292735144        0.0000000000000000        0.2314283515440728
+        1.5800667156772363       -1.4520079775829784        0.0000000000000000        0.1229317230114044
-        0.0083646921839726        0.1027321114247060       -0.3500000000000000       -0.3543600596543159
-        0.0083646921839726        0.1027321114247060        0.3500000000000000       -0.3543600596543159
+       -1.9008207902610770       -0.4230893089420136       -0.0000000000000000        0.2314283515440728
+       -1.6581586693594064       -1.0871452044536341        0.0000000000000000        0.1229317230114044
