6
s                      x[A]                      y[A]                      z[A]                      q[e]
N        0.0000000000000000        1.0434098921337547       -0.3839317869539353        0.2314283515440728
N       -0.0000000000000000        0.8752872599637890       -0.7181599650097995        0.1229317230114044
O       -0.1852120237345000        0.0067068417556000        0.0655475932570526       -0.3543600596543159
O        0.1852120237345000        0.0067068417556000        0.0655475932570526       -0.3543600596543159
N       -0.0000000000000000       -1.0434098921337547       -0.3839317869539353        0.2314283515440728
N        0.0000000000000000       -0.8752872599637890       -0.7181599650097995        0.1229317230114044

        RMSE         8.719388490E-01 kcal/mol
         MAE         6.090119442E-01 kcal/mol
     max. AE         5.916051818E+00 kcal/mol

Coordinates in bohr
s                   x[bohr]                   y[bohr]                   z[bohr]                      q[e]
+        0.0000000000000000        1.9717589327262908       -0.7255259282005604        0.2314283515440728
+       -0.0000000000000000        1.6540532024339698       -1.3571256481368978        0.1229317230114044
-       -0.3500000000000000        0.0126740940848687        0.1238669994387356       -0.3543600596543159
-        0.3500000000000000        0.0126740940848687        0.1238669994387356       -0.3543600596543159
+       -0.0000000000000000       -1.9717589327262908       -0.7255259282005604        0.2314283515440728
+        0.0000000000000000       -1.6540532024339698       -1.3571256481368978        0.1229317230114044
