6
s                      x[A]                      y[A]                      z[A]                      q[e]
N        0.0000000000000000        1.0418184782332964       -0.2455678478602662        0.1979110689179275
N        0.0000000000000000        0.8058207583573265       -0.7880140584240034        0.1054997195048966
O       -0.2910474658684998        0.0032931996012330        0.1067301428215358       -0.3034107735216629
O        0.2910474658684998        0.0032931996012330        0.1067301428215358       -0.3034107735216629
N       -0.0000000000000000       -1.0418184782332964       -0.2455678478602662        0.1979110689179275
N        0.0000000000000000       -0.8058207583573265       -0.7880140584240034        0.1054997195048966

        RMSE         1.171976183E+00 kcal/mol
         MAE         9.674089747E-01 kcal/mol
     max. AE         4.495180164E+00 kcal/mol

Coordinates in bohr
s                   x[bohr]                   y[bohr]                   z[bohr]                      q[e]
+        0.0000000000000000        1.9687515963021780       -0.4640559776739983        0.1979110689179275
+        0.0000000000000000        1.5227805395040794       -1.4891307534318905        0.1054997195048966
-       -0.5499999999999997        0.0062232453227972        0.2016907392637014       -0.3034107735216629
-        0.5499999999999997        0.0062232453227972        0.2016907392637014       -0.3034107735216629
+       -0.0000000000000000       -1.9687515963021780       -0.4640559776739983        0.1979110689179275
+        0.0000000000000000       -1.5227805395040794       -1.4891307534318905        0.1054997195048966
