3
s                      x[A]                      y[A]                      z[A]                      q[e]
N        0.0000000000000000        0.8239569634053555       -0.3925515925331661        0.3613484133133580
O        0.0000000000000000        0.0000000000000000        0.0981380304275942       -0.7226967968243936
N        0.0000000000000000       -0.8239569634053555       -0.3925515925331661        0.3613484133133580

        RMSE         2.471974707E+00 kcal/mol
         MAE         1.895928205E+00 kcal/mol
     max. AE         9.596952066E+00 kcal/mol

Coordinates in bohr
s                   x[bohr]                   y[bohr]                   z[bohr]                      q[e]
+        0.0000000000000000        1.5570530000000000       -0.7418150000000000        0.3613484133133580
-        0.0000000000000000        0.0000000000000000        0.1854540000000000       -0.7226967968243936
+        0.0000000000000000       -1.5570530000000000       -0.7418150000000000        0.3613484133133580
