6
s                      x[A]                      y[A]                      z[A]                      q[e]
N        1.0163104592161916       -0.3939185222926117        0.0000000000000000        0.1979110689179275
N        0.7028921412358804       -0.8956273752103246        0.0000000000000000        0.1054997195048966
O        0.0040921636992695        0.1413135595494052       -0.2910474658684998       -0.3034107735216629
O        0.0040921636992695        0.1413135595494052        0.2910474658684998       -0.3034107735216629
N       -1.0219614194043285       -0.4825706520461323        0.0000000000000000        0.1979110689179275
N       -0.6823947814418486       -0.9669644108049267        0.0000000000000000        0.1054997195048966

        RMSE         1.184627716E+00 kcal/mol
         MAE         8.409435678E-01 kcal/mol
     max. AE         6.097354481E+00 kcal/mol

Coordinates in bohr
s                   x[bohr]                   y[bohr]                   z[bohr]                      q[e]
+        1.9205484263568799       -0.7443981228780903        0.0000000000000000        0.1979110689179275
+        1.3282736426724369       -1.6924904496101714        0.0000000000000000        0.1054997195048966
-        0.0077330686521596        0.2670439253619515       -0.5499999999999997       -0.3034107735216629
-        0.0077330686521596        0.2670439253619515        0.5499999999999997       -0.3034107735216629
+       -1.9312271934583241       -0.9119263685507952        0.0000000000000000        0.1979110689179275
+       -1.2895392463667461       -1.8272979094860058        0.0000000000000000        0.1054997195048966
