6
s                      x[A]                      y[A]                      z[A]                      q[e]
N        0.8812468808105318       -0.6091653776720066        0.0000000000000000        0.2314283515440728
N        0.6332981280477215       -0.8893351662960958        0.0000000000000000        0.1229317230114044
O       -0.0061777420539966        0.0903078443027115       -0.1852120237345000       -0.3543600596543159
O       -0.0061777420539966        0.0903078443027115        0.1852120237345000       -0.3543600596543159
N       -0.8782939531071368       -0.4499878046188883       -0.0000000000000000        0.2314283515440728
N       -0.6589258430497590       -0.7530576426829134        0.0000000000000000        0.1229317230114044

        RMSE         1.474845942E+00 kcal/mol
         MAE         1.106693066E+00 kcal/mol
     max. AE         7.292185712E+00 kcal/mol

Coordinates in bohr
s                   x[bohr]                   y[bohr]                   z[bohr]                      q[e]
+        1.6653152536458828       -1.1511557289111756        0.0000000000000000        0.2314283515440728
+        1.1967600177753162       -1.6805998980381143        0.0000000000000000        0.1229317230114044
-       -0.0116742405557768        0.1706570927126119       -0.3500000000000000       -0.3543600596543159
-       -0.0116742405557768        0.1706570927126119        0.3500000000000000       -0.3543600596543159
+       -1.6597350290181889       -0.8503537105257261       -0.0000000000000000        0.2314283515440728
+       -1.2451893803504541       -1.4230727013535875        0.0000000000000000        0.1229317230114044
