6
s                      x[A]                      y[A]                      z[A]                      q[e]
N        0.0750060446493593        0.1205376031825403       -0.5261032423058460        0.5225510325000000
N       -0.4173302124139232        1.4269222542718132       -0.4670956502492118        0.0948963128000000
O       -0.5240988068498146       -0.0101504456970278       -0.2811188368857040       -0.6174473453000000
O        0.5240988068498146       -0.0101504456970278       -0.2811188368857040       -0.6174473453000000
N        0.0750060446493593       -0.1205376031825403       -0.5261032423058460        0.5225510325000000
N       -0.4173302124139232       -1.4269222542718132       -0.4670956502492118        0.0948963128000000

        RMSE         5.101800673E+00 kcal/mol
         MAE         4.135956888E+00 kcal/mol
     max. AE         2.392127389E+01 kcal/mol

Coordinates in bohr
s                   x[bohr]                   y[bohr]                   z[bohr]                      q[e]
+        0.1417408821411505        0.2277830578341151       -0.9941910416734274        0.5225510325000000
+       -0.7886398053414555        2.6964922628946235       -0.8826828533636478        0.0948963128000000
-       -0.9904032076253707       -0.0191815624187144       -0.5312376104212326       -0.6174473453000000
-        0.9904032076253707       -0.0191815624187144       -0.5312376104212326       -0.6174473453000000
+        0.1417408821411505       -0.2277830578341151       -0.9941910416734274        0.5225510325000000
+       -0.7886398053414555       -2.6964922628946235       -0.8826828533636478        0.0948963128000000
