6
s                      x[A]                      y[A]                      z[A]                      q[e]
N        1.1189880715536886       -0.1507246341220413        0.0000000000000000        0.1979110689179275
N        0.9463352725228686       -0.7165283334104412        0.0000000000000000        0.1054997195048966
O        0.0026266604790844        0.1038262391306733       -0.2910474658684998       -0.3034107735216629
O        0.0026266604790844        0.1038262391306733        0.2910474658684998       -0.3034107735216629
N       -1.1348068897883443       -0.2756635862775283        0.0000000000000000        0.1979110689179275
N       -0.9126810896872926       -0.8239362776192387        0.0000000000000000        0.1054997195048966

        RMSE         1.271346236E+00 kcal/mol
         MAE         1.013747231E+00 kcal/mol
     max. AE         4.564141047E+00 kcal/mol

Coordinates in bohr
s                   x[bohr]                   y[bohr]                   z[bohr]                      q[e]
+        2.1145809928906791       -0.2848282788504938        0.0000000000000000        0.1979110689179275
+        1.7883144879287185       -1.3540423112764679        0.0000000000000000        0.1054997195048966
-        0.0049636689300334        0.1962031565932653       -0.5499999999999997       -0.3034107735216629
-        0.0049636689300334        0.1962031565932653        0.5499999999999997       -0.3034107735216629
+       -2.1444742269825765       -0.5209286808260433        0.0000000000000000        0.1979110689179275
+       -1.7247172993933959       -1.5570139095295494        0.0000000000000000        0.1054997195048966
