3
s                      x[A]                      y[A]                      z[A]                      q[e]
N        0.8352781806504295       -0.4623119658613708        0.0000000000000000        0.3613484133133580
O        0.0000000000000000        0.1037192624685307        0.0000000000000000       -0.7226967968243936
N       -0.8352781806504295       -0.3674405463552426        0.0000000000000000        0.3613484133133580

        RMSE         2.443410310E+00 kcal/mol
         MAE         1.859994291E+00 kcal/mol
     max. AE         9.608685544E+00 kcal/mol

Coordinates in bohr
s                   x[bohr]                   y[bohr]                   z[bohr]                      q[e]
+        1.5784469999999999       -0.8736429999999999        0.0000000000000000        0.3613484133133580
-        0.0000000000000000        0.1960010000000000        0.0000000000000000       -0.7226967968243936
+       -1.5784469999999999       -0.6943620000000000        0.0000000000000000        0.3613484133133580
