3
s                      x[A]                      y[A]                      z[A]                      q[e]
N        0.7336105382276664       -0.4137969991871452        0.0000000000000000        0.3613484133133580
O        0.0000000000000000        0.1229490331270678        0.0000000000000000       -0.7226967968243936
N       -0.7336105382276664       -0.5697963241838185        0.0000000000000000        0.3613484133133580

        RMSE         2.113328355E+00 kcal/mol
         MAE         1.616873694E+00 kcal/mol
     max. AE         9.432718790E+00 kcal/mol

Coordinates in bohr
s                   x[bohr]                   y[bohr]                   z[bohr]                      q[e]
+        1.3863230000000000       -0.7819630000000000        0.0000000000000000        0.3613484133133580
-        0.0000000000000000        0.2323400000000000        0.0000000000000000       -0.7226967968243936
+       -1.3863230000000000       -1.0767590000000000        0.0000000000000000        0.3613484133133580
