6
s                      x[A]                      y[A]                      z[A]                      q[e]
N        0.0000000000000000        0.8699145014282018       -0.4741558818577649        0.2314283515440728
N       -0.0000000000000000        0.6463078395834546       -0.7741121373900489        0.1229317230114044
O       -0.1852120237345000       -0.0019993366618845        0.0780841764933666       -0.3543600596543159
O        0.1852120237345000       -0.0019993366618845        0.0780841764933666       -0.3543600596543159
N       -0.0000000000000000       -0.8699145014282018       -0.4741558818577649        0.2314283515440728
N        0.0000000000000000       -0.6463078395834546       -0.7741121373900489        0.1229317230114044

        RMSE         9.320582309E-01 kcal/mol
         MAE         6.549453377E-01 kcal/mol
     max. AE         5.427649077E+00 kcal/mol

Coordinates in bohr
s                   x[bohr]                   y[bohr]                   z[bohr]                      q[e]
+        0.0000000000000000        1.6439001602634942       -0.8960247574861137        0.2314283515440728
+       -0.0000000000000000        1.2213448095490613       -1.4628599300599752        0.1229317230114044
-       -0.3500000000000000       -0.0037781987235487        0.1475577083043749       -0.3543600596543159
-        0.3500000000000000       -0.0037781987235487        0.1475577083043749       -0.3543600596543159
+       -0.0000000000000000       -1.6439001602634942       -0.8960247574861137        0.2314283515440728
+        0.0000000000000000       -1.2213448095490613       -1.4628599300599752        0.1229317230114044
