6
s                      x[A]                      y[A]                      z[A]                      q[e]
N        0.0000000000000000        1.0395331515028710       -0.2861151083656374        0.2314283515440728
N        0.0000000000000000        0.9011799245290849       -0.6337241977753364        0.1229317230114044
O       -0.1852120237345000        0.0109998544254612        0.0464701822161728       -0.3543600596543159
O        0.1852120237345000        0.0109998544254612        0.0464701822161728       -0.3543600596543159
N       -0.0000000000000000       -1.0395331515028710       -0.2861151083656374        0.2314283515440728
N        0.0000000000000000       -0.9011799245290849       -0.6337241977753364        0.1229317230114044

        RMSE         1.461023446E+00 kcal/mol
         MAE         1.200394847E+00 kcal/mol
     max. AE         5.071942388E+00 kcal/mol

Coordinates in bohr
s                   x[bohr]                   y[bohr]                   z[bohr]                      q[e]
+        0.0000000000000000        1.9644329546744859       -0.5406791951667427        0.2314283515440728
+        0.0000000000000000        1.7029832471207256       -1.1975651728708570        0.1229317230114044
-       -0.3500000000000000        0.0207867122840270        0.0878159173886875       -0.3543600596543159
-        0.3500000000000000        0.0207867122840270        0.0878159173886875       -0.3543600596543159
+       -0.0000000000000000       -1.9644329546744859       -0.5406791951667427        0.2314283515440728
+        0.0000000000000000       -1.7029832471207256       -1.1975651728708570        0.1229317230114044
