6
s                      x[A]                      y[A]                      z[A]                      q[e]
N        0.0814501406955610        0.3078615543189472       -0.3934267230671520        0.5225510325000000
N       -0.1881972857725869        1.2012893819543646       -0.3876457740248803        0.0948963128000000
O       -0.3849835611050201        0.1130565549583577       -0.1912815802272076       -0.6174473453000000
O        0.3849835611050201        0.1130565549583577       -0.1912815802272076       -0.6174473453000000
N        0.0814501406955610       -0.3078615543189472       -0.3934267230671520        0.5225510325000000
N       -0.1881972857725869       -1.2012893819543646       -0.3876457740248803        0.0948963128000000

        RMSE         6.006825106E+00 kcal/mol
         MAE         4.711482468E+00 kcal/mol
     max. AE         2.096197365E+01 kcal/mol

Coordinates in bohr
s                   x[bohr]                   y[bohr]                   z[bohr]                      q[e]
+        0.1539184587946175        0.5817740222205687       -0.7434687570332592        0.5225510325000000
+       -0.3556413276647102        2.2701079293142503       -0.7325443465981379        0.0948963128000000
-       -0.7275134932919467        0.2136459255590674       -0.3614697994742117       -0.6174473453000000
-        0.7275134932919467        0.2136459255590674       -0.3614697994742117       -0.6174473453000000
+        0.1539184587946175       -0.5817740222205687       -0.7434687570332592        0.5225510325000000
+       -0.3556413276647102       -2.2701079293142503       -0.7325443465981379        0.0948963128000000
