6
s                      x[A]                      y[A]                      z[A]                      q[e]
N        0.0000000000000000        0.5465920090066806       -0.1262712753695743        0.5225510325000000
N        0.0000000000000000        1.0603259799062306       -0.7324862246340168        0.0948963129000000
O       -0.3455139784000000       -0.0002247232712199        0.1330880613911012       -0.6174473453000000
O        0.3455139784000000       -0.0002247232712199        0.1330880613911012       -0.6174473453000000
N       -0.0000000000000000       -0.5465920090066806       -0.1262712753695743        0.5225510325000000
N        0.0000000000000000       -1.0603259799062306       -0.7324862246340168        0.0948963129000000

        RMSE         9.713500124E-01 kcal/mol
         MAE         7.407814410E-01 kcal/mol
     max. AE         4.186019448E+00 kcal/mol

Coordinates in bohr
s                   x[bohr]                   y[bohr]                   z[bohr]                      q[e]
+        0.0000000000000000        1.0329091993864048       -0.2386181279607641        0.5225510325000000
+        0.0000000000000000        2.0037257057304760       -1.3841983552288730        0.0948963129000000
-       -0.6529267916933517       -0.0004246654366226        0.2514999865972992       -0.6174473453000000
-        0.6529267916933517       -0.0004246654366226        0.2514999865972992       -0.6174473453000000
+       -0.0000000000000000       -1.0329091993864048       -0.2386181279607641        0.5225510325000000
+        0.0000000000000000       -2.0037257057304760       -1.3841983552288730        0.0948963129000000
