3
s                      x[A]                      y[A]                      z[A]                      q[e]
N        0.0000000000000000        0.6567856491370171       -0.5590355056048441        0.3613484133133580
O        0.0000000000000000        0.0000000000000000        0.1397588764012110       -0.7226967968243936
N        0.0000000000000000       -0.6567856491370171       -0.5590355056048441        0.3613484133133580

        RMSE         2.099287627E+00 kcal/mol
         MAE         1.628592206E+00 kcal/mol
     max. AE         7.598499226E+00 kcal/mol

Coordinates in bohr
s                   x[bohr]                   y[bohr]                   z[bohr]                      q[e]
+        0.0000000000000000        1.2411449999999999       -1.0564240000000000        0.3613484133133580
-        0.0000000000000000        0.0000000000000000        0.2641060000000000       -0.7226967968243936
+        0.0000000000000000       -1.2411449999999999       -1.0564240000000000        0.3613484133133580
