6
s                      x[A]                      y[A]                      z[A]                      q[e]
N        0.3104812002137123       -0.4212273975514040        0.0765010205340935        0.5225510325000000
N        1.2803114300767870       -0.3618380448050920       -0.2182070154170613        0.0948963128000000
O        0.0929754182144708       -0.1827343240102926       -0.4143255342499489       -0.6174473453000000
O        0.0929754182144708       -0.1827343240102926        0.4143255342499489       -0.6174473453000000
N       -0.3078391399005547       -0.4729399633183745        0.0765010205340935        0.5225510325000000
N       -1.2792753676761437       -0.4931742248819766       -0.2182070154170613        0.0948963128000000

        RMSE         5.094874077E+00 kcal/mol
         MAE         3.943634568E+00 kcal/mol
     max. AE         2.325874287E+01 kcal/mol

Coordinates in bohr
s                   x[bohr]                   y[bohr]                   z[bohr]                      q[e]
+        0.5867244355073549       -0.7960044179114989        0.1445659771274623        0.5225510325000000
+        2.4194379581383778       -0.6837748064527625       -0.4123514977917997        0.0948963128000000
-        0.1756980768252530       -0.3453178261001256       -0.7829617865164007       -0.6174473453000000
-        0.1756980768252530       -0.3453178261001256        0.7829617865164007       -0.6174473453000000
+       -0.5817316651085456       -0.8937270044557992        0.1445659771274623        0.5225510325000000
+       -2.4174800839522774       -0.9319642171618853       -0.4123514977917997        0.0948963128000000
