6
s                      x[A]                      y[A]                      z[A]                      q[e]
N        0.8878894066447760       -0.5299878150658286        0.0000000000000000        0.2314283515440728
N        0.6562748286092921       -0.8238047337341464       -0.0000000000000000        0.1229317230114044
O       -0.0033459855627273        0.0817260955932074       -0.1852120237345000       -0.3543600596543159
O       -0.0033459855627273        0.0817260955932074        0.1852120237345000       -0.3543600596543159
N       -0.8858382926190553       -0.4469077000769113        0.0000000000000000        0.2314283515440728
N       -0.6704020650563485       -0.7527850060475400        0.0000000000000000        0.1229317230114044

        RMSE         1.073252548E+00 kcal/mol
         MAE         7.703097491E-01 kcal/mol
     max. AE         6.096974153E+00 kcal/mol

Coordinates in bohr
s                   x[bohr]                   y[bohr]                   z[bohr]                      q[e]
+        1.6778678082538825       -1.0015318203042083        0.0000000000000000        0.2314283515440728
+        1.2401796891033379       -1.5567653276132463       -0.0000000000000000        0.1229317230114044
-       -0.0063229963332904        0.1544399379741480       -0.3500000000000000       -0.3543600596543159
-       -0.0063229963332904        0.1544399379741480        0.3500000000000000       -0.3543600596543159
+       -1.6739917644931852       -0.8445331565036107        0.0000000000000000        0.2314283515440728
+       -1.2668762968978602       -1.4225574927809654        0.0000000000000000        0.1229317230114044
