6
s                      x[A]                      y[A]                      z[A]                      q[e]
N        0.0000000000000000        0.5663061666840906       -0.1794984887157400        0.5225510325000000
N        0.0000000000000000        1.0365012942937983       -0.8200729961229587        0.0948963129000000
O       -0.3455139784000000        0.0010497465816565        0.1500273182049871       -0.6174473453000000
O        0.3455139784000000        0.0010497465816565        0.1500273182049871       -0.6174473453000000
N       -0.0000000000000000       -0.5663061666840906       -0.1794984887157400        0.5225510325000000
N        0.0000000000000000       -1.0365012942937983       -0.8200729961229587        0.0948963129000000

        RMSE         2.635269013E+00 kcal/mol
         MAE         2.119095205E+00 kcal/mol
     max. AE         1.078134820E+01 kcal/mol

Coordinates in bohr
s                   x[bohr]                   y[bohr]                   z[bohr]                      q[e]
+        0.0000000000000000        1.0701635581908016       -0.3392029836063310        0.5225510325000000
+        0.0000000000000000        1.9587035748978436       -1.5497133655560313        0.0948963129000000
-       -0.6529267916933517        0.0019837335404662        0.2835105427443389       -0.6174473453000000
-        0.6529267916933517        0.0019837335404662        0.2835105427443389       -0.6174473453000000
+       -0.0000000000000000       -1.0701635581908016       -0.3392029836063310        0.5225510325000000
+        0.0000000000000000       -1.9587035748978436       -1.5497133655560313        0.0948963129000000
