3
s                      x[A]                      y[A]                      z[A]                      q[e]
N        0.6420194882504815       -0.6362011848191648        0.0000000000000000        0.3379860774420776
O        0.0000000000000000        0.1421888581526077        0.0000000000000000       -0.6759721250818329
N       -0.6420194882504815       -0.5013107387561178        0.0000000000000000        0.3379860774420776

        RMSE         2.262148035E+00 kcal/mol
         MAE         1.750031607E+00 kcal/mol
     max. AE         9.148506838E+00 kcal/mol

Coordinates in bohr
s                   x[bohr]                   y[bohr]                   z[bohr]                      q[e]
+        1.2132410000000000       -1.2022459999999999        0.0000000000000000        0.3379860774420776
-        0.0000000000000000        0.2686980000000000        0.0000000000000000       -0.6759721250818329
+       -1.2132410000000000       -0.9473400000000000        0.0000000000000000        0.3379860774420776
