6
s                      x[A]                      y[A]                      z[A]                      q[e]
N        0.0000000000000000        0.4816949688160956       -0.1394900321613761        0.5225510325000000
N        0.0000000000000000        0.9292480058502469       -0.7960838461814428        0.0948963129000000
O       -0.3455139784000000        0.0016854492974152        0.1416503260280190       -0.6174473453000000
O        0.3455139784000000        0.0016854492974152        0.1416503260280190       -0.6174473453000000
N       -0.0000000000000000       -0.4816949688160956       -0.1394900321613761        0.5225510325000000
N        0.0000000000000000       -0.9292480058502469       -0.7960838461814428        0.0948963129000000

        RMSE         8.014415716E-01 kcal/mol
         MAE         6.184935034E-01 kcal/mol
     max. AE         3.649503322E+00 kcal/mol

Coordinates in bohr
s                   x[bohr]                   y[bohr]                   z[bohr]                      q[e]
+        0.0000000000000000        0.9102715670733696       -0.2635979580163051        0.5225510325000000
+        0.0000000000000000        1.7560242336848004       -1.5043804421840234        0.0948963129000000
-       -0.6529267916933517        0.0031850375704600        0.2676803217747665       -0.6174473453000000
-        0.6529267916933517        0.0031850375704600        0.2676803217747665       -0.6174473453000000
+       -0.0000000000000000       -0.9102715670733696       -0.2635979580163051        0.5225510325000000
+        0.0000000000000000       -1.7560242336848004       -1.5043804421840234        0.0948963129000000
