3
s                      x[A]                      y[A]                      z[A]                      q[e]
N        0.0000000000000000        0.8405794779469216       -0.3693080127316970        0.3379860774420776
O        0.0000000000000000        0.0000000000000000        0.0923271354772269       -0.6759721250818329
N        0.0000000000000000       -0.8405794779469216       -0.3693080127316970        0.3379860774420776

        RMSE         2.680289846E+00 kcal/mol
         MAE         2.058746185E+00 kcal/mol
     max. AE         1.080404165E+01 kcal/mol

Coordinates in bohr
s                   x[bohr]                   y[bohr]                   z[bohr]                      q[e]
+        0.0000000000000000        1.5884650000000000       -0.6978910000000000        0.3379860774420776
-        0.0000000000000000        0.0000000000000000        0.1744730000000000       -0.6759721250818329
+        0.0000000000000000       -1.5884650000000000       -0.6978910000000000        0.3379860774420776
