6
s                      x[A]                      y[A]                      z[A]                      q[e]
N        1.0135518746048329       -0.4133170103213328        0.0000000000000000        0.1979110689179275
N        0.6975401430143763       -0.9133964046566885        0.0000000000000000        0.1054997195048966
O        0.0041185863902157        0.1271484552023196       -0.2910474658684998       -0.3034107735216629
O        0.0041185863902157        0.1271484552023196        0.2910474658684998       -0.3034107735216629
N       -1.0059428086992481       -0.3179682475787635        0.0000000000000000        0.1979110689179275
N       -0.7215511102402342       -0.8366822120998783        0.0000000000000000        0.1054997195048966

        RMSE         7.084045512E-01 kcal/mol
         MAE         4.623122032E-01 kcal/mol
     max. AE         4.266036817E+00 kcal/mol

Coordinates in bohr
s                   x[bohr]                   y[bohr]                   z[bohr]                      q[e]
+        1.9153354569475092       -0.7810559525003454        0.0000000000000000        0.1979110689179275
+        1.3181598318098566       -1.7260690487789945        0.0000000000000000        0.1054997195048966
-        0.0077830003015457        0.2402757576074277       -0.5499999999999997       -0.3034107735216629
-        0.0077830003015457        0.2402757576074277        0.5499999999999997       -0.3034107735216629
+       -1.9009564063153952       -0.6008729045156321        0.0000000000000000        0.1979110689179275
+       -1.3635339838740721       -1.5811002349109877        0.0000000000000000        0.1054997195048966
