6
s                      x[A]                      y[A]                      z[A]                      q[e]
N        0.5156107216251057       -0.1630646023548636        0.0000000000000000        0.5225510325000000
N        0.9570346244769903       -0.8237945740974206        0.0000000000000000        0.0948963129000000
O        0.0018546000999483        0.1568260037227183       -0.3455139784000000       -0.6174473453000000
O        0.0018546000999483        0.1568260037227183        0.3455139784000000       -0.6174473453000000
N       -0.5340736893109700       -0.2251716134860057        0.0000000000000000        0.5225510325000000
N       -0.9411027667664992       -0.9076278301575303        0.0000000000000000        0.0948963129000000

        RMSE         2.795957580E+00 kcal/mol
         MAE         2.318838986E+00 kcal/mol
     max. AE         1.027012074E+01 kcal/mol

Coordinates in bohr
s                   x[bohr]                   y[bohr]                   z[bohr]                      q[e]
+        0.9743630512211258       -0.3081474392073777        0.0000000000000000        0.5225510325000000
+        1.8085333328418904       -1.5567461286823003        0.0000000000000000        0.0948963129000000
-        0.0035046862611491        0.2963581963859673       -0.6529267916933517       -0.6174473453000000
-        0.0035046862611491        0.2963581963859673        0.6529267916933517       -0.6174473453000000
+       -1.0092530036105871       -0.4255126807159971        0.0000000000000000        0.5225510325000000
+       -1.7784264850992986       -1.7151680228412856        0.0000000000000000        0.0948963129000000
