6
s                      x[A]                      y[A]                      z[A]                      q[e]
N        0.0000000000000000        0.5957431311940716       -0.1352940501016260        0.5225510325000000
N       -0.0000000000000000        1.1303210173706859       -0.7232104056989621        0.0948963129000000
O       -0.3455139784000000       -0.0008619443336576        0.1333410903727909       -0.6174473453000000
O        0.3455139784000000       -0.0008619443336576        0.1333410903727909       -0.6174473453000000
N        0.0000000000000000       -0.5957431311940716       -0.1352940501016260        0.5225510325000000
N        0.0000000000000000       -1.1303210173706859       -0.7232104056989621        0.0948963129000000

        RMSE         9.400907013E-01 kcal/mol
         MAE         7.705722705E-01 kcal/mol
     max. AE         3.958470343E+00 kcal/mol

Coordinates in bohr
s                   x[bohr]                   y[bohr]                   z[bohr]                      q[e]
+        0.0000000000000000        1.1257913590794877       -0.2556687010960430        0.5225510325000000
+       -0.0000000000000000        2.1359971566794567       -1.3666695978522836        0.0948963129000000
-       -0.6529267916933517       -0.0016288387260030        0.2519781420744963       -0.6174473453000000
-        0.6529267916933517       -0.0016288387260030        0.2519781420744963       -0.6174473453000000
+        0.0000000000000000       -1.1257913590794877       -0.2556687010960430        0.5225510325000000
+        0.0000000000000000       -2.1359971566794567       -1.3666695978522836        0.0948963129000000
