6
s                      x[A]                      y[A]                      z[A]                      q[e]
N        0.0000000000000000        0.5370202405848098       -0.2148534383774833        0.5225510325000000
N       -0.0000000000000000        0.9495964341447236       -0.8939705432095755        0.0948963129000000
O       -0.3455139784000000        0.0026349151672329        0.1626836437470532       -0.6174473453000000
O        0.3455139784000000        0.0026349151672329        0.1626836437470532       -0.6174473453000000
N        0.0000000000000000       -0.5370202405848098       -0.2148534383774833        0.5225510325000000
N        0.0000000000000000       -0.9495964341447236       -0.8939705432095755        0.0948963129000000

        RMSE         2.411259631E+00 kcal/mol
         MAE         1.957103024E+00 kcal/mol
     max. AE         9.827386008E+00 kcal/mol

Coordinates in bohr
s                   x[bohr]                   y[bohr]                   z[bohr]                      q[e]
+        0.0000000000000000        1.0148211785327634       -0.4060141556463738        0.5225510325000000
+       -0.0000000000000000        1.7944771902448782       -1.6893594908928611        0.0948963129000000
-       -0.6529267916933517        0.0049792680298851        0.3074275317734804       -0.6174473453000000
-        0.6529267916933517        0.0049792680298851        0.3074275317734804       -0.6174473453000000
+        0.0000000000000000       -1.0148211785327634       -0.4060141556463738        0.5225510325000000
+        0.0000000000000000       -1.7944771902448782       -1.6893594908928611        0.0948963129000000
