3
s                      x[A]                      y[A]                      z[A]                      q[e]
N        0.7272318361302502       -0.5081011407234353        0.0000000000000000        0.3379860774420776
O        0.0000000000000000        0.1170508239369400        0.0000000000000000       -0.6759721250818329
N       -0.7272318361302502       -0.4283070383037166        0.0000000000000000        0.3379860774420776

        RMSE         2.147168809E+00 kcal/mol
         MAE         1.615719203E+00 kcal/mol
     max. AE         1.001532124E+01 kcal/mol

Coordinates in bohr
s                   x[bohr]                   y[bohr]                   z[bohr]                      q[e]
+        1.3742690000000000       -0.9601720000000000        0.0000000000000000        0.3379860774420776
-        0.0000000000000000        0.2211940000000000        0.0000000000000000       -0.6759721250818329
+       -1.3742690000000000       -0.8093830000000000        0.0000000000000000        0.3379860774420776
