6
s                      x[A]                      y[A]                      z[A]                      q[e]
N        0.0751246196715793       -0.5377852369546924        0.0759879026475582        0.5225510325000000
N        1.4246488445700982       -0.5240714464737942       -0.4454769617660528        0.0948963128000000
O       -0.0352589126874857       -0.2992294685758701       -0.5368310822997353       -0.6174473453000000
O       -0.0352589126874857       -0.2992294685758701        0.5368310822997353       -0.6174473453000000
N       -0.0760775389033294       -0.5011668226126446        0.0759879026475582        0.5225510325000000
N       -1.4222535449908822       -0.4051779572611486       -0.4454769617660528        0.0948963128000000

        RMSE         6.003437021E+00 kcal/mol
         MAE         4.939903625E+00 kcal/mol
     max. AE         2.814693848E+01 kcal/mol

Coordinates in bohr
s                   x[bohr]                   y[bohr]                   z[bohr]                      q[e]
+        0.1419649564584664       -1.0162668121588108        0.1435963248518367        0.5225510325000000
+        2.6921961411874236       -0.9903515040080028       -0.8418294529388880        0.0948963128000000
-       -0.0666296884607783       -0.5654617442746840       -1.0144637211796113       -0.6174473453000000
-       -0.0666296884607783       -0.5654617442746840        1.0144637211796113       -0.6174473453000000
+       -0.1437657128261559       -0.9470680379038036        0.1435963248518367        0.5225510325000000
+       -2.6876696809942806       -0.7656753712960278       -0.8418294529388880        0.0948963128000000
