6
s                      x[A]                      y[A]                      z[A]                      q[e]
N        0.2159810575975545       -0.4578041798424143        0.0732091514796721        0.5225510325000000
N        1.3252790687668716       -0.3720605273872993       -0.2935546462442173        0.0948963128000000
O        0.0518618503244656       -0.2153517765481679       -0.4625571503540850       -0.6174473453000000
O        0.0518618503244656       -0.2153517765481679        0.4625571503540850       -0.6174473453000000
N       -0.2137381245080937       -0.5020642855164728        0.0732091514796721        0.5225510325000000
N       -1.3263361135905054       -0.4976183648784154       -0.2935546462442173        0.0948963128000000

        RMSE         4.446852284E+00 kcal/mol
         MAE         3.427783697E+00 kcal/mol
     max. AE         2.330850646E+01 kcal/mol

Coordinates in bohr
s                   x[bohr]                   y[bohr]                   z[bohr]                      q[e]
+        0.4081450471461107       -0.8651245189920044        0.1383452461737360        0.5225510325000000
+        2.5044144797711789       -0.7030924988553973       -0.5547378842572281        0.0948963128000000
-        0.0980046934727261       -0.4069558783068292       -0.8741063315414391       -0.6174473453000000
-        0.0980046934727261       -0.4069558783068292        0.8741063315414391       -0.6174473453000000
+       -0.4039065178893028       -0.9487639969997967        0.1383452461737360        0.5225510325000000
+       -2.5064120049901795       -0.9403624246183477       -0.5547378842572281        0.0948963128000000
