6
s                      x[A]                      y[A]                      z[A]                      q[e]
N        0.0000000000000000        0.9763414535160483       -0.4048358925479936        0.2314283515440728
N        0.0000000000000000        0.7909570142464558       -0.7298071283997206        0.1229317230114044
O       -0.1852120237345000        0.0041043921517843        0.0676563710937245       -0.3543600596543159
O        0.1852120237345000        0.0041043921517843        0.0676563710937245       -0.3543600596543159
N       -0.0000000000000000       -0.9763414535160483       -0.4048358925479936        0.2314283515440728
N        0.0000000000000000       -0.7909570142464558       -0.7298071283997206        0.1229317230114044

        RMSE         8.229392399E-01 kcal/mol
         MAE         5.582111604E-01 kcal/mol
     max. AE         5.534058951E+00 kcal/mol

Coordinates in bohr
s                   x[bohr]                   y[bohr]                   z[bohr]                      q[e]
+        0.0000000000000000        1.8450179520767462       -0.7650289626709816        0.2314283515440728
+        0.0000000000000000        1.4946921339356471       -1.3791355970823078        0.1229317230114044
-       -0.3500000000000000        0.0077561770783509        0.1278520120094810       -0.3543600596543159
-        0.3500000000000000        0.0077561770783509        0.1278520120094810       -0.3543600596543159
+       -0.0000000000000000       -1.8450179520767462       -0.7650289626709816        0.2314283515440728
+        0.0000000000000000       -1.4946921339356471       -1.3791355970823078        0.1229317230114044
