6
s                      x[A]                      y[A]                      z[A]                      q[e]
N        0.0621967307123461       -0.4710612971677122        0.0750060381924679        0.5225510325000000
N        1.3658913880726349       -0.3685810359204066       -0.4173300112083233        0.0948963128000000
O        0.0034258504752505       -0.2905601000822854       -0.5240987146561287       -0.6174473453000000
O        0.0034258504752505       -0.2905601000822854        0.5240987146561287       -0.6174473453000000
N       -0.0608257846726540       -0.5064909637431058        0.0750060381924679        0.5225510325000000
N       -1.3684506002441654       -0.4910214687077932       -0.4173300112083233        0.0948963128000000

        RMSE         6.079409214E+00 kcal/mol
         MAE         5.046324735E+00 kcal/mol
     max. AE         2.505124867E+01 kcal/mol

Coordinates in bohr
s                   x[bohr]                   y[bohr]                   z[bohr]                      q[e]
+        0.1175347869451857       -0.8901768399498793        0.1417408699393943        0.5225510325000000
+        2.5811606405787151       -0.6965172129271027       -0.7886394251179768        0.0948963128000000
-        0.0064739191449930       -0.5490790121411360       -0.9904030334045539       -0.6174473453000000
-        0.0064739191449930       -0.5490790121411360        0.9904030334045539       -0.6174473453000000
+       -0.1149440743973865       -0.9571292064936606        0.1417408699393943        0.5225510325000000
+       -2.5859968506798459       -0.9278960975777903       -0.7886394251179768        0.0948963128000000
