6
s                      x[A]                      y[A]                      z[A]                      q[e]
N        0.0000000000000000        1.1249411076223585       -0.2900425507048184        0.1979110689179275
N        0.0000000000000000        0.8889433798365418       -0.8324887578272817        0.1054997195048966
O       -0.2910474658684998        0.0032931996837883        0.1178486851469023       -0.3034107735216629
O        0.2910474658684998        0.0032931996837883        0.1178486851469023       -0.3034107735216629
N       -0.0000000000000000       -1.1249411076223585       -0.2900425507048184        0.1979110689179275
N        0.0000000000000000       -0.8889433798365418       -0.8324887578272817        0.1054997195048966

        RMSE         8.480513277E-01 kcal/mol
         MAE         6.157055479E-01 kcal/mol
     max. AE         4.610766474E+00 kcal/mol

Coordinates in bohr
s                   x[bohr]                   y[bohr]                   z[bohr]                      q[e]
+        0.0000000000000000        2.1258306006754375       -0.5481009855613223        0.1979110689179275
+        0.0000000000000000        1.6798595289298945       -1.5731757548161494        0.1054997195048966
-       -0.5499999999999997        0.0062232454788042        0.2227017391729552       -0.3034107735216629
-        0.5499999999999997        0.0062232454788042        0.2227017391729552       -0.3034107735216629
+       -0.0000000000000000       -2.1258306006754375       -0.5481009855613223        0.1979110689179275
+        0.0000000000000000       -1.6798595289298945       -1.5731757548161494        0.1054997195048966
