6
s                      x[A]                      y[A]                      z[A]                      q[e]
N        1.0409000712717151       -0.2316289297817455        0.0000000000000000        0.1979110689179275
N        0.8034718789925880       -0.7734505504768602        0.0000000000000000        0.1054997195048966
O        0.0033081265993181        0.1234079786890057       -0.2910474658684998       -0.3034107735216629
O        0.0033081265993181        0.1234079786890057        0.2910474658684998       -0.3034107735216629
N       -1.0594738327569206       -0.4343287161793814        0.0000000000000000        0.1979110689179275
N       -0.7516103680370309       -0.9394652345902760        0.0000000000000000        0.1054997195048966

        RMSE         7.788474897E-01 kcal/mol
         MAE         5.346960399E-01 kcal/mol
     max. AE         4.999723293E+00 kcal/mol

Coordinates in bohr
s                   x[bohr]                   y[bohr]                   z[bohr]                      q[e]
+        1.9670160586730756       -0.4377152400204013        0.0000000000000000        0.1979110689179275
+        1.5183418008029843       -1.4616097119858613        0.0000000000000000        0.1054997195048966
-        0.0062514532610534        0.2332072814185570       -0.5499999999999997       -0.3034107735216629
-        0.0062514532610534        0.2332072814185570        0.5499999999999997       -0.3034107735216629
+       -2.0021153809996908       -0.8207623220007352        0.0000000000000000        0.1979110689179275
+       -1.4203377486445505       -1.7753319977646118        0.0000000000000000        0.1054997195048966
