6
s                      x[A]                      y[A]                      z[A]                      q[e]
N       -0.0423001660160245       -0.4953873749086051        0.0782276061513025        0.5225510325000000
N        1.3832046262654312       -0.5722877013476488       -0.4988985575291068        0.0948963128000000
O       -0.0845216843819554       -0.3102873409631334       -0.5602251269001421       -0.6174473453000000
O       -0.0845216843819554       -0.3102873409631334        0.5602251269001421       -0.6174473453000000
N        0.0390666633282174       -0.5305466363700491        0.0782276061513025        0.5225510325000000
N       -1.3813788543020959       -0.6730671768818606       -0.4988985575291068        0.0948963128000000

        RMSE         7.399393618E+00 kcal/mol
         MAE         6.120127057E+00 kcal/mol
     max. AE         3.581190496E+01 kcal/mol

Coordinates in bohr
s                   x[bohr]                   y[bohr]                   z[bohr]                      q[e]
+       -0.0799357288316849       -0.9361464645867628        0.1478287510761419        0.5225510325000000
+        2.6138779191079164       -1.0814670205148591       -0.9427816381159784        0.0948963128000000
-       -0.1597228351442819       -0.5863580946168740       -1.0586720584411258       -0.6174473453000000
-       -0.1597228351442819       -0.5863580946168740        1.0586720584411258       -0.6174473453000000
+        0.0738252943257978       -1.0025878395222561        0.1478287510761419        0.5225510325000000
+       -2.6104277101296733       -1.2719126283417970       -0.9427816381159784        0.0948963128000000
