3
s                      x[A]                      y[A]                      z[A]                      q[e]
N        0.6662055326641538       -0.6201713487535492        0.0000000000000000        0.3613484133133580
O        0.0000000000000000        0.1376220588245256        0.0000000000000000       -0.7226967968243936
N       -0.6662055326641538       -0.4808040634882340        0.0000000000000000        0.3613484133133580

        RMSE         2.125658810E+00 kcal/mol
         MAE         1.645520914E+00 kcal/mol
     max. AE         8.659791139E+00 kcal/mol

Coordinates in bohr
s                   x[bohr]                   y[bohr]                   z[bohr]                      q[e]
+        1.2589459999999999       -1.1719539999999999        0.0000000000000000        0.3613484133133580
-        0.0000000000000000        0.2600680000000000        0.0000000000000000       -0.7226967968243936
+       -1.2589459999999999       -0.9085880000000000        0.0000000000000000        0.3613484133133580
