6
s                      x[A]                      y[A]                      z[A]                      q[e]
N        0.0000000000000000        0.9918082370335234       -0.3522864679102186        0.1979110689179275
N        0.0000000000000000        0.6914619175364559       -0.8619284044756668        0.1054997195048966
O       -0.2910474658684998        0.0039586207164540        0.1239500076957483       -0.3034107735216629
O        0.2910474658684998        0.0039586207164540        0.1239500076957483       -0.3034107735216629
N        0.0000000000000000       -0.9918082370335234       -0.3522864679102186        0.1979110689179275
N        0.0000000000000000       -0.6914619175364559       -0.8619284044756668        0.1054997195048966

        RMSE         6.994583496E-01 kcal/mol
         MAE         4.761956179E-01 kcal/mol
     max. AE         4.386012721E+00 kcal/mol

Coordinates in bohr
s                   x[bohr]                   y[bohr]                   z[bohr]                      q[e]
+        0.0000000000000000        1.8742459369665194       -0.6657249420552009        0.1979110689179275
+        0.0000000000000000        1.3066736503278071       -1.6288086242118496        0.1054997195048966
-       -0.5499999999999997        0.0074807089886618        0.2342315677933544       -0.3034107735216629
-        0.5499999999999997        0.0074807089886618        0.2342315677933544       -0.3034107735216629
+        0.0000000000000000       -1.8742459369665194       -0.6657249420552009        0.1979110689179275
+        0.0000000000000000       -1.3066736503278071       -1.6288086242118496        0.1054997195048966
