3
s                      x[A]                      y[A]                      z[A]                      q[e]
N        0.7872135437824841       -0.4298136058224941        0.0000000000000000        0.3613484133133580
O        0.0000000000000000        0.1178869239297986        0.0000000000000000       -0.7226967968243936
N       -0.7872135437824841       -0.5132833731475266        0.0000000000000000        0.3613484133133580

        RMSE         2.227240405E+00 kcal/mol
         MAE         1.699273804E+00 kcal/mol
     max. AE         9.555110118E+00 kcal/mol

Coordinates in bohr
s                   x[bohr]                   y[bohr]                   z[bohr]                      q[e]
+        1.4876180000000001       -0.8122300000000000        0.0000000000000000        0.3613484133133580
-        0.0000000000000000        0.2227740000000000        0.0000000000000000       -0.7226967968243936
+       -1.4876180000000001       -0.9699650000000000        0.0000000000000000        0.3613484133133580
