6
s                      x[A]                      y[A]                      z[A]                      q[e]
N        0.0759879050749660        0.0184820744399552       -0.4808623452078498        0.5225510325000000
N       -0.4454770264352070        1.3669599163967898       -0.4259854901390010        0.0948963128000000
O       -0.5368311111964655       -0.0222712298239193       -0.3097626084658351       -0.6174473453000000
O        0.5368311111964655       -0.0222712298239193       -0.3097626084658351       -0.6174473453000000
N        0.0759879050749660       -0.0184820744399552       -0.4808623452078498        0.5225510325000000
N       -0.4454770264352070       -1.3669599163967898       -0.4259854901390010        0.0948963128000000

        RMSE         7.053639391E+00 kcal/mol
         MAE         5.923133842E+00 kcal/mol
     max. AE         2.950554839E+01 kcal/mol

Coordinates in bohr
s                   x[bohr]                   y[bohr]                   z[bohr]                      q[e]
+        0.1435963294389728        0.0349260589218398       -0.9086981364881945        0.5225510325000000
+       -0.8418295751458783        2.5831798664686625       -0.8049959097816283        0.0948963128000000
-       -1.0144637757865174       -0.0420865248443358       -0.5853664939078529       -0.6174473453000000
-        1.0144637757865174       -0.0420865248443358       -0.5853664939078529       -0.6174473453000000
+        0.1435963294389728       -0.0349260589218398       -0.9086981364881945        0.5225510325000000
+       -0.8418295751458783       -2.5831798664686625       -0.8049959097816283        0.0948963128000000
