3
s                      x[A]                      y[A]                      z[A]                      q[e]
N        0.0000000000000000        0.6340072161037270       -0.5211162542198639        0.3379860774420776
O        0.0000000000000000        0.0000000000000000        0.1302791958492686       -0.6759721250818329
N        0.0000000000000000       -0.6340072161037270       -0.5211162542198639        0.3379860774420776

        RMSE         1.950207457E+00 kcal/mol
         MAE         1.502865857E+00 kcal/mol
     max. AE         7.712808515E+00 kcal/mol

Coordinates in bohr
s                   x[bohr]                   y[bohr]                   z[bohr]                      q[e]
+        0.0000000000000000        1.1980999999999999       -0.9847669999999999        0.3379860774420776
-        0.0000000000000000        0.0000000000000000        0.2461920000000000       -0.6759721250818329
+        0.0000000000000000       -1.1980999999999999       -0.9847669999999999        0.3379860774420776
