6
s                      x[A]                      y[A]                      z[A]                      q[e]
N        0.9500533960230474       -0.3426654468234519        0.0000000000000000        0.2314283515440728
N        0.7737223969836251       -0.6726367686562127        0.0000000000000000        0.1229317230114044
O        0.0054802734558978        0.0732483836858450       -0.1852120237345000       -0.3543600596543159
O        0.0054802734558978        0.0732483836858450        0.1852120237345000       -0.3543600596543159
N       -0.9572374216167290       -0.5262276948962801        0.0000000000000000        0.2314283515440728
N       -0.7411117518288799       -0.8316182469980989        0.0000000000000000        0.1229317230114044

        RMSE         9.097478791E-01 kcal/mol
         MAE         6.359320376E-01 kcal/mol
     max. AE         6.478074315E+00 kcal/mol

Coordinates in bohr
s                   x[bohr]                   y[bohr]                   z[bohr]                      q[e]
+        1.7953407230446849       -0.6475438471539572        0.0000000000000000        0.2314283515440728
+        1.4621234274318096       -1.2710992746731784        0.0000000000000000        0.1229317230114044
-        0.0103562159242632        0.1384193842987002       -0.3500000000000000       -0.3543600596543159
-        0.0103562159242632        0.1384193842987002        0.3500000000000000       -0.3543600596543159
+       -1.8089165638950226       -0.9944262229849515        0.0000000000000000        0.2314283515440728
+       -1.4004982393148526       -1.5715307277597486        0.0000000000000000        0.1229317230114044
