6
s                      x[A]                      y[A]                      z[A]                      q[e]
N        1.0345107400377986       -0.4187116908435382        0.0000000000000000        0.2314283515440728
N        0.8605609026480001       -0.7499444617560231        0.0000000000000000        0.1229317230114044
O        0.0058380956572317        0.0488533279125340       -0.1852120237345000       -0.3543600596543159
O        0.0058380956572317        0.0488533279125340        0.1852120237345000       -0.3543600596543159
N       -1.0185951554514341       -0.1876029236754411        0.0000000000000000        0.2314283515440728
N       -0.9048482958686850       -0.5440231060295867        0.0000000000000000        0.1229317230114044

        RMSE         1.342101694E+00 kcal/mol
         MAE         1.101886903E+00 kcal/mol
     max. AE         4.858305542E+00 kcal/mol

Coordinates in bohr
s                   x[bohr]                   y[bohr]                   z[bohr]                      q[e]
+        1.9549419725161397       -0.7912504212216553        0.0000000000000000        0.2314283515440728
+        1.6262244202814966       -1.4171896420227661        0.0000000000000000        0.1229317230114044
-        0.0110324018863926        0.0923194100718737       -0.3500000000000000       -0.3543600596543159
-        0.0110324018863926        0.0923194100718737        0.3500000000000000       -0.3543600596543159
+       -1.9248658765213529       -0.3545181460817520        0.0000000000000000        0.2314283515440728
+       -1.7099154642790486       -1.0280546763168241        0.0000000000000000        0.1229317230114044
