6
s                      x[A]                      y[A]                      z[A]                      q[e]
N        0.0000000000000000        0.5241480315171052       -0.2285518708889516        0.5225510325000000
N        0.0000000000000000        0.9127719599050297       -0.9216540277549129        0.0948963129000000
O       -0.3455139784000000        0.0032640419572265        0.1674051853151058       -0.6174473453000000
O        0.3455139784000000        0.0032640419572265        0.1674051853151058       -0.6174473453000000
N        0.0000000000000000       -0.5241480315171052       -0.2285518708889516        0.5225510325000000
N        0.0000000000000000       -0.9127719599050297       -0.9216540277549129        0.0948963129000000

        RMSE         4.033737637E+00 kcal/mol
         MAE         3.386248017E+00 kcal/mol
     max. AE         1.483322803E+01 kcal/mol

Coordinates in bohr
s                   x[bohr]                   y[bohr]                   z[bohr]                      q[e]
+        0.0000000000000000        0.9904962287651669       -0.4319004414411163        0.5225510325000000
+        0.0000000000000000        1.7248890192178798       -1.7416736948818932        0.0948963129000000
-       -0.6529267916933517        0.0061681453611615        0.3163499522270647       -0.6174473453000000
-        0.6529267916933517        0.0061681453611615        0.3163499522270647       -0.6174473453000000
+        0.0000000000000000       -0.9904962287651669       -0.4319004414411163        0.5225510325000000
+        0.0000000000000000       -1.7248890192178798       -1.7416736948818932        0.0948963129000000
