6
s                      x[A]                      y[A]                      z[A]                      q[e]
N        0.0793080330707851       -0.0336812090631440       -0.5114899558696188        0.5225510325000000
N       -0.5216476224251739        1.4264254441553164       -0.5350120881217525        0.0948963128000000
O       -0.5699346145544955       -0.0758887368240181       -0.3388673930873309       -0.6174473453000000
O        0.5699346145544955       -0.0758887368240181       -0.3388673930873309       -0.6174473453000000
N        0.0793080330707851        0.0336812090631440       -0.5114899558696188        0.5225510325000000
N       -0.5216476224251739       -1.4264254441553164       -0.5350120881217525        0.0948963128000000

        RMSE         8.281520473E+00 kcal/mol
         MAE         6.899146123E+00 kcal/mol
     max. AE         3.819602883E+01 kcal/mol

Coordinates in bohr
s                   x[bohr]                   y[bohr]                   z[bohr]                      q[e]
+        0.1498704620525361       -0.0636482607036302       -0.9665759325160902        0.5225510325000000
+       -0.9857711403798121        2.6955534278380875       -1.0110263203594214        0.0948963128000000
-       -1.0770203309263675       -0.1434089286043406       -0.6403665657829167       -0.6174473453000000
-        1.0770203309263675       -0.1434089286043406       -0.6403665657829167       -0.6174473453000000
+        0.1498704620525361        0.0636482607036302       -0.9665759325160902        0.5225510325000000
+       -0.9857711403798121       -2.6955534278380875       -1.0110263203594214        0.0948963128000000
