6
s                      x[A]                      y[A]                      z[A]                      q[e]
N        0.9954485162456920       -0.4414131802953443        0.0000000000000000        0.1979110689179275
N        0.6632058327069178       -0.9308594126606257        0.0000000000000000        0.1054997195048966
O        0.0042833936315373        0.1318679571523158       -0.2910474658684998       -0.3034107735216629
O        0.0042833936315373        0.1318679571523158        0.2910474658684998       -0.3034107735216629
N       -0.9889721232958755       -0.3500318444203870        0.0000000000000000        0.1979110689179275
N       -0.6855815857700907       -0.8578674446705370        0.0000000000000000        0.1054997195048966

        RMSE         7.932017376E-01 kcal/mol
         MAE         5.105449159E-01 kcal/mol
     max. AE         4.541957648E+00 kcal/mol

Coordinates in bohr
s                   x[bohr]                   y[bohr]                   z[bohr]                      q[e]
+        1.8811250676977154       -0.8341500189255387        0.0000000000000000        0.1979110689179275
+        1.2532773886222763       -1.7590693512331137        0.0000000000000000        0.1054997195048966
-        0.0080944408511357        0.2491943237414846       -0.5499999999999997       -0.3034107735216629
-        0.0080944408511357        0.2491943237414846        0.5499999999999997       -0.3034107735216629
+       -1.8688864587417162       -0.6614643211433953        0.0000000000000000        0.1979110689179275
+       -1.2955614337625472       -1.6211345223736617        0.0000000000000000        0.1054997195048966
