6
s                      x[A]                      y[A]                      z[A]                      q[e]
N        0.5566852895846299       -0.1183181386379273        0.0000000000000000        0.5225510325000000
N        1.0966343876904194       -0.7013053846585026        0.0000000000000000        0.0948963129000000
O       -0.0010292786698561        0.1166924374957747       -0.3455139784000000       -0.6174473453000000
O       -0.0010292786698561        0.1166924374957747        0.3455139784000000       -0.6174473453000000
N       -0.5297067932680675       -0.0450189293499345        0.0000000000000000        0.5225510325000000
N       -1.1179335904077032       -0.5792551998284151        0.0000000000000000        0.0948963129000000

        RMSE         1.043283757E+00 kcal/mol
         MAE         7.830120527E-01 kcal/mol
     max. AE         5.002691219E+00 kcal/mol

Coordinates in bohr
s                   x[bohr]                   y[bohr]                   z[bohr]                      q[e]
+        1.0519827353861317       -0.2235888776996325        0.0000000000000000        0.5225510325000000
+        2.0723386524940342       -1.3252751073134239        0.0000000000000000        0.0948963129000000
-       -0.0019450547928036        0.2205167477791202       -0.6529267916933517       -0.6174473453000000
-       -0.0019450547928036        0.2205167477791202        0.6529267916933517       -0.6174473453000000
+       -1.0010007660711560       -0.0850734469327115        0.0000000000000000        0.5225510325000000
+       -2.1125883123203075       -1.0946336844230509        0.0000000000000000        0.0948963129000000
