6
s                      x[A]                      y[A]                      z[A]                      q[e]
N        1.0600148797092008       -0.1764980726882472        0.0000000000000000        0.1979110689179275
N        0.8555763134405072       -0.7316085912011067        0.0000000000000000        0.1054997195048966
O        0.0029624441929822        0.1155435438375634       -0.2910474658684998       -0.3034107735216629
O        0.0029624441929822        0.1155435438375634        0.2910474658684998       -0.3034107735216629
N       -1.0830296493748308       -0.3946074773807826        0.0000000000000000        0.1979110689179275
N       -0.7979883920648002       -0.9129647834667795        0.0000000000000000        0.1054997195048966

        RMSE         9.133068414E-01 kcal/mol
         MAE         7.055242470E-01 kcal/mol
     max. AE         4.496977392E+00 kcal/mol

Coordinates in bohr
s                   x[bohr]                   y[bohr]                   z[bohr]                      q[e]
+        2.0031378115605141       -0.3335330190519354        0.0000000000000000        0.1979110689179275
+        1.6168049118314221       -1.3825398684021275        0.0000000000000000        0.1054997195048966
-        0.0055982081866893        0.2183456534178254       -0.5499999999999997       -0.3034107735216629
-        0.0055982081866893        0.2183456534178254        0.5499999999999997       -0.3034107735216629
+       -2.0466294230690494       -0.7457000593074737        0.0000000000000000        0.1979110689179275
+       -1.5079795122969373       -1.7252534029401221        0.0000000000000000        0.1054997195048966
