6
s                      x[A]                      y[A]                      z[A]                      q[e]
N        0.9003172795992149       -0.4204463999761631        0.0000000000000000        0.2314283515440728
N        0.6927593653788680       -0.7317234577539556        0.0000000000000000        0.1229317230114044
O        0.0006252431153035        0.0852777168828410       -0.1852120237345000       -0.3543600596543159
O        0.0006252431153035        0.0852777168828410        0.1852120237345000       -0.3543600596543159
N       -0.9043085250038456       -0.5858070816310603        0.0000000000000000        0.2314283515440728
N       -0.6652693424633964       -0.8736159829261623        0.0000000000000000        0.1229317230114044

        RMSE         1.241306922E+00 kcal/mol
         MAE         9.114517915E-01 kcal/mol
     max. AE         6.906142398E+00 kcal/mol

Coordinates in bohr
s                   x[bohr]                   y[bohr]                   z[bohr]                      q[e]
+        1.7013530844597566       -0.7945285463896470        0.0000000000000000        0.2314283515440728
+        1.3091254714120319       -1.3827569347279873        0.0000000000000000        0.1229317230114044
-        0.0011815382497517        0.1611515295129007       -0.3500000000000000       -0.3543600596543159
-        0.0011815382497517        0.1611515295129007        0.3500000000000000       -0.3543600596543159
+       -1.7088954451740006       -1.1070149466364212        0.0000000000000000        0.2314283515440728
+       -1.2571768569192312       -1.6508949465530889        0.0000000000000000        0.1229317230114044
