6
s                      x[A]                      y[A]                      z[A]                      q[e]
N        0.9899428494051905       -0.5253571013577336        0.0000000000000000        0.1979110689179275
N        0.6267198454807812       -0.9922745079316837        0.0000000000000000        0.1054997195048966
O        0.0045950909117561        0.1481102571987025       -0.2910474658684998       -0.3034107735216629
O        0.0045950909117561        0.1481102571987025        0.2910474658684998       -0.3034107735216629
N       -0.9856338478165619       -0.4417378332529627        0.0000000000000000        0.1979110689179275
N       -0.6451114025037017       -0.9254601496492242        0.0000000000000000        0.1054997195048966

        RMSE         1.489305835E+00 kcal/mol
         MAE         1.100575685E+00 kcal/mol
     max. AE         7.093419528E+00 kcal/mol

Coordinates in bohr
s                   x[bohr]                   y[bohr]                   z[bohr]                      q[e]
+        1.8707208652311529       -0.9927810396305055        0.0000000000000000        0.1979110689179275
+        1.1843288653479254       -1.8751270612643136        0.0000000000000000        0.1054997195048966
-        0.0086834633447993        0.2798878224766664       -0.5499999999999997       -0.3034107735216629
-        0.0086834633447993        0.2798878224766664        0.5499999999999997       -0.3034107735216629
+       -1.8625780323544823       -0.8347635241012574        0.0000000000000000        0.1979110689179275
+       -1.2190838711419856       -1.7488662228622502        0.0000000000000000        0.1054997195048966
