3
s                      x[A]                      y[A]                      z[A]                      q[e]
N        0.8261731575636415       -0.4726213962796437        0.0000000000000000        0.3613484133133580
O        0.0000000000000000        0.1066191535830023        0.0000000000000000       -0.7226967968243936
N       -0.8261731575636415       -0.3803297156755318        0.0000000000000000        0.3613484133133580

        RMSE         2.386352476E+00 kcal/mol
         MAE         1.809736262E+00 kcal/mol
     max. AE         9.443672615E+00 kcal/mol

Coordinates in bohr
s                   x[bohr]                   y[bohr]                   z[bohr]                      q[e]
+        1.5612410000000001       -0.8931249999999999        0.0000000000000000        0.3613484133133580
-        0.0000000000000000        0.2014810000000000        0.0000000000000000       -0.7226967968243936
+       -1.5612410000000001       -0.7187190000000000        0.0000000000000000        0.3613484133133580
