102
frame 1 | Written by MDAnalysis XYZWriter (release 2.4.3)
       H   -17.33692   -5.55182   -1.55212
       O   -17.48006   -6.39395   -1.90364
      H1   -16.92130   -6.28777   -2.63510
       H   -16.49266   -6.59174    1.25557
       O   -15.95502   -7.27356    0.76349
      H1   -16.58611   -7.87035    0.32764
       H   -14.44210   -6.07105   -3.31563
       O   -15.36230   -5.97219   -3.72554
      H1   -15.30338   -6.49189   -4.55809
       H   -11.84392   -3.53743   -1.18657
       O   -11.44966   -2.63162   -1.16173
      H1   -11.56276   -2.44116   -0.22428
       H    -9.60395   -7.32784   -5.42494
       O    -9.36147   -7.52429   -4.48841
      H1    -9.80267   -6.77428   -4.03698
       H   -14.55841   -2.66007   -5.60380
       O   -14.78311   -2.74528   -6.52910
      H1   -14.57758   -1.89408   -6.98735
       H    -7.81302   -2.72100   -3.80236
       O    -7.36110   -2.17063   -4.43966
      H1    -6.68429   -2.69318   -4.92879
       H   -15.70349   -3.99343   -3.76430
       O   -16.14378   -3.15511   -3.60770
      H1   -15.47954   -2.48020   -3.68190
       H   -15.51614   -5.61628   -7.26881
       O   -16.14227   -5.15790   -6.70083
      H1   -15.87360   -4.20557   -6.66721
       H   -10.09678   -6.38940   -7.48836
       O   -10.16863   -7.27493   -7.12449
      H1   -10.75027   -7.72372   -7.72062
       H   -14.93802   -0.00554   -0.12774
       O   -15.35168    0.51563    0.50603
      H1   -14.87549    0.07673    1.23171
       H    -9.08572   -6.49683   -0.91856
       O    -9.14650   -5.54337   -0.64069
      H1    -8.29578   -5.31111   -0.26430
       H   -17.99685   -2.63574   -5.75378
       O   -18.37230   -2.65530   -4.82377
      H1   -17.53445   -2.63375   -4.34164
       H   -14.46597   -3.66600    3.44325
       O   -14.68345   -3.06251    2.71614
      H1   -14.37561   -3.50548    1.92304
       H   -13.64914   -0.90586   -3.28814
       O   -13.91642   -1.42263   -4.07445
      H1   -13.78086   -0.86525   -4.86170
       H   -16.12906   -8.00193   -5.89860
       O   -15.16348   -7.98481   -5.84278
      H1   -14.99802   -8.12336   -6.80581
       H   -14.35191   -6.14858   -9.30458
       O   -14.31921   -6.59788   -8.47700
      H1   -13.78460   -6.01184   -7.91595
       H   -13.17865  -10.23356   -5.03153
       O   -13.78942   -9.80580   -4.37821
      H1   -14.40095   -9.32976   -4.98586
       H   -12.87482   -8.30097   -4.20673
       O   -12.39657   -7.51461   -3.87393
      H1   -11.48978   -7.65961   -4.14584
       H   -12.43812   -4.43883   -4.79950
       O   -12.16672   -3.99271   -3.98463
      H1   -12.88354   -3.34777   -3.78444
       H    -7.62846   -7.41833   -3.97787
       O    -6.70811   -7.23788   -3.90299
      H1    -6.26276   -7.50153   -4.71837
       H   -14.27739  -10.24086   -1.53087
       O   -13.38264  -10.29510   -1.37329
      H1   -13.29094  -10.93990   -0.62323
       H   -11.48101   -2.74791    1.68554
       O   -11.41404   -1.79401    1.71060
      H1   -12.31612   -1.49808    1.84917
       H   -11.59402   -5.48093    1.23948
       O   -10.95465   -4.76810    1.28697
      H1   -10.34492   -5.03207    0.54561
       H   -16.44894   -2.58475   -2.00235
       O   -16.30123   -2.25165   -1.10663
      H1   -17.19403   -2.06903   -0.72733
       H   -12.96208   -6.14279   -1.85084
       O   -13.23099   -5.22396   -1.98097
      H1   -12.80684   -4.91544   -2.77022
       H   -12.39031    0.41184   -1.62295
       O   -12.99911   -0.30434   -1.59129
      H1   -12.40534   -1.11384   -1.49124
       H    -9.78395   -2.63922   -1.71001
       O    -8.99981   -3.14443   -2.04561
      H1    -9.04622   -4.09688   -1.77635
       H   -10.48990   -9.35320   -5.43740
       O   -10.52455  -10.28530   -5.14138
      H1   -10.49140  -10.81039   -5.94977
       H   -10.41885   -0.54255   -4.80464
       O   -10.39047    0.16524   -5.45687
      H1    -9.49498    0.09156   -5.79151
       H   -11.95090   -7.71605   -2.25073
       O   -12.07766   -7.85175   -1.31388
      H1   -12.43489   -8.74722   -1.34619
       H   -12.55089   -4.17410   -6.92179
       O   -12.58683   -5.07905   -6.60099
      H1   -11.70289   -5.43813   -6.90485
       H   -13.84343   -6.92034    0.82621
       O   -12.94790   -6.64156    1.01822
      H1   -12.55539   -7.20614    0.31003
       H   -13.98878   -4.32846   -0.53890
       O   -14.27267   -3.73222    0.17320
      H1   -15.11798   -3.27576   -0.08021

