102
frame 9 | Written by MDAnalysis XYZWriter (release 2.4.3)
       H    17.68935   13.89729   -5.04960
       O    16.84651   14.11123   -4.64444
      H1    16.38281   13.23766   -4.65224
       H    18.22338   16.37395   -7.22707
       O    18.95855   16.87370   -6.76952
      H1    18.98277   16.66467   -5.81671
       H    15.90793   11.45613   -3.99481
       O    15.28099   12.01488   -4.48881
      H1    14.43719   11.96082   -4.01991
       H    18.79201   17.44990   -3.63498
       O    19.19034   16.57696   -3.85471
      H1    18.75110   15.90516   -3.28311
       H    14.15503   11.83202  -10.70572
       O    13.98899   12.10849  -11.61553
      H1    13.56430   12.97502  -11.55353
       H    15.65658   12.04977  -12.15082
       O    16.56665   11.85105  -12.40484
      H1    17.09042   12.25173  -11.70410
       H    16.85263   16.12348   -9.12208
       O    16.98125   15.34260   -8.56167
      H1    17.81539   15.01572   -8.96599
       H    17.83139   11.32932   -2.87352
       O    17.28090   10.63594   -3.22493
      H1    16.61086   10.49613   -2.55949
       H    14.13185   17.97510   -0.69509
       O    14.80725   18.19455   -1.29747
      H1    14.61088   17.73222   -2.07309
       H    17.75788   10.66157   -8.50693
       O    18.14166   10.43999   -9.32454
      H1    17.49266    9.85897   -9.84102
       H    17.48290    6.64384   -5.92944
       O    17.26929    6.53171   -4.99994
      H1    17.74376    5.77516   -4.60709
       H    12.73433   10.37191   -9.66936
       O    13.68398   10.56235   -9.55852
      H1    13.84204   10.83988   -8.67168
       H    18.15952   10.76488   -6.34806
       O    17.51817   11.34352   -6.70719
      H1    16.70979   11.20414   -6.22078
       H    18.67314    9.82374    0.44506
       O    19.29888    9.16068    0.90730
      H1    18.89428    8.25883    0.95040
       H    12.70496   12.59067   -1.73990
       O    12.85340   11.81710   -2.33697
      H1    12.40378   11.11234   -1.86323
       H    18.88766   19.94442   -5.95150
       O    18.18164   19.27545   -6.26185
      H1    18.60278   18.45574   -6.60125
       H    14.34851   12.07306   -6.83155
       O    13.70428   11.38278   -7.09847
      H1    12.79819   11.73424   -7.01620
       H    18.69559   11.70499  -10.17597
       O    18.73366   12.42419  -10.84568
      H1    19.62794   12.48194  -11.22645
       H    18.87512   12.35531   -0.29971
       O    18.29796   11.63151   -0.04436
      H1    17.83864   12.00179    0.69456
       H    15.50228   17.51135  -10.38743
       O    16.46405   17.44889  -10.17400
      H1    16.89248   17.92631  -10.89756
       H    15.57342    8.65135  -10.28764
       O    16.33486    9.04078  -10.74963
      H1    16.05807    9.88254  -11.16073
       H    15.59231   14.26934   -6.05689
       O    15.32357   13.97909   -6.92388
      H1    16.00329   14.43391   -7.47492
       H    16.65370    6.00100   -8.47369
       O    17.05471    6.52954   -7.79362
      H1    17.75846    6.99790   -8.17049
       H    13.70239    9.73055   -5.90770
       O    13.27691    9.01918   -5.37345
      H1    12.37041    9.22852   -5.36430
       H    18.58847    9.26569   -3.50221
       O    18.97240    8.49904   -3.97624
      H1    18.19694    7.96885   -4.24941
       H    14.14144   10.43516   -1.95056
       O    15.04170   10.20813   -1.71392
      H1    14.98593    9.27447   -1.40152
       H    14.23116   12.96692    0.12115
       O    14.90671   12.27926    0.31888
      H1    15.23229   11.76542   -0.43469
       H    18.88814    8.86459   -8.88197
       O    19.18682    8.04845   -8.51312
      H1    19.54361    7.56596   -9.25870
       H    17.83381   18.39380   -0.31834
       O    18.59949   18.53851   -0.90884
      H1    18.15329   18.70983   -1.76278
       H    16.97420   18.38954   -3.98434
       O    17.65616   18.89501   -3.53095
      H1    18.03964   19.50080   -4.19768
       H    17.62785   19.80543   -7.74632
       O    17.12435   20.02580   -8.57279
      H1    16.74468   19.22306   -8.97597
       H    14.89410   17.27934   -4.66854
       O    15.67683   17.09501   -4.17376
      H1    16.09612   16.35635   -4.60981
       H    18.82606   12.57027   -6.13194
       O    19.21381   13.38014   -5.84404
      H1    19.52196   13.79854   -6.66162
       H    13.61014   14.97681   -6.94536
       O    12.70747   15.32258   -6.98963
      H1    12.15776   14.57125   -6.77351

