102
frame 1 | Written by MDAnalysis XYZWriter (release 2.4.3)
       H    -4.64368   13.79214  -10.39964
       O    -5.36339   13.91366  -11.01972
      H1    -5.26792   13.37826  -11.84491
       H    -0.13931   15.64382   -2.67453
       O    -0.84662   15.75213   -2.00094
      H1    -1.48056   16.42963   -2.29427
       H     0.37445   12.77044   -7.77826
       O     1.27579   12.58532   -8.12938
      H1     1.56439   13.46178   -8.39962
       H    -5.52579    9.71118   -8.27543
       O    -6.29563   10.15363   -7.90566
      H1    -7.06853    9.89073   -8.41041
       H     0.86596    8.12619   -3.68913
       O     1.10178    7.73805   -4.56520
      H1     0.61972    8.31922   -5.17870
       H     3.67977   14.40070   -8.50032
       O     3.16718   14.36052   -9.31271
      H1     2.33324   14.80039   -9.15176
       H     0.04875   15.67708  -12.51798
       O     0.66962   15.86977  -13.21095
      H1     1.30238   15.18304  -13.14203
       H    -3.16002    7.28964   -6.59639
       O    -3.01872    8.22897   -6.43434
      H1    -3.34338    8.57798   -7.29588
       H    -3.52436    9.18346   -4.79151
       O    -3.61733    9.86283   -4.15474
      H1    -4.31147    9.48753   -3.65981
       H    -2.26249   18.95298   -5.40788
       O    -1.54896   18.47571   -4.87835
      H1    -0.86830   19.13336   -4.65847
       H     0.33127   15.58353   -7.81371
       O     0.80468   15.71590   -8.66982
      H1     1.09671   16.64307   -8.74730
       H    -3.25325    8.71125   -9.47479
       O    -3.56532    9.30315   -8.81040
      H1    -3.05248   10.15551   -8.89996
       H    -1.48469   12.85911   -6.16157
       O    -1.12468   12.97592   -7.05391
      H1    -1.59117   12.42005   -7.67674
       H    -2.13116   10.30569   -1.64521
       O    -1.68540   10.58306   -2.42938
      H1    -2.33549   10.33362   -3.13066
       H     0.16719   11.70309  -11.23454
       O    -0.76613   11.54022  -11.49396
      H1    -0.87083   12.19605  -12.23777
       H    -4.41194   15.81213   -5.41387
       O    -5.07633   16.50663   -5.54185
      H1    -5.17667   16.85995   -4.59494
       H    -4.30348   11.66264   -4.74665
       O    -4.67847   12.52374   -4.90005
      H1    -5.30740   12.36874   -5.66879
       H     1.93129   11.51151   -6.52353
       O     2.09042   11.43305   -5.52379
      H1     1.63827   12.21676   -5.14662
       H     1.24692   10.41964   -9.96801
       O     1.84964   11.00619  -10.43892
      H1     1.92295   11.79837   -9.93596
       H    -0.26744   10.30375   -5.99815
       O    -0.23373    9.45921   -6.41996
      H1    -1.14260    9.12526   -6.32658
       H    -5.27293   12.20162   -3.11114
       O    -5.67550   11.88919   -2.30712
      H1    -4.91609   11.86383   -1.70805
       H     1.72492   14.11588   -3.36931
       O     0.94411   14.09466   -3.94446
      H1     1.09846   14.72450   -4.59919
       H     4.15061    8.98760   -5.45922
       O     4.31901    9.58257   -4.69246
      H1     3.66856   10.32949   -4.86890
       H    -6.89578   13.41337   -7.79806
       O    -6.04082   13.05474   -7.63115
      H1    -6.17564   12.09823   -7.93235
       H     3.97209   14.87858   -4.48249
       O     4.03572   14.73490   -5.45162
      H1     3.98054   13.82055   -5.73188
       H    -1.10418   16.60471   -5.90140
       O    -0.61087   15.81702   -6.27873
      H1    -1.25929   15.11439   -6.41085
       H    -4.48971   19.63816   -5.54290
       O    -3.92133   19.09600   -6.03341
      H1    -4.22397   18.23931   -5.74234
       H    -3.64862   14.41592   -8.13700
       O    -3.49888   14.17595   -9.05155
      H1    -2.87530   14.85191   -9.32384
       H    -2.20315   16.42437  -11.93000
       O    -2.69498   16.20449  -12.71058
      H1    -3.57611   16.34883  -12.37787
       H    -0.27666   12.77313   -4.06846
       O    -0.80746   12.06789   -4.56719
      H1    -1.18633   11.47944   -3.83408
       H    -3.49383   13.60812   -5.26689
       O    -2.79352   14.33679   -5.36792
      H1    -2.21011   14.34946   -4.57990
       H     0.13513    9.05607   -8.13380
       O     0.41183    8.98927   -9.06749
      H1     1.29347    8.57742   -9.03177
       H    -1.73364   11.70724  -10.10401
       O    -2.26144   11.77751   -9.25886
      H1    -2.70802   12.59472   -9.39309
       H    -0.67124   15.74838   -9.82663
       O    -1.46922   16.09548  -10.21886
      H1    -1.69546   16.89174   -9.69567

