102
frame 8 | Written by MDAnalysis XYZWriter (release 2.4.3)
       H   -11.92009   16.57018   -2.23531
       O   -12.59041   16.45755   -1.54032
      H1   -12.26493   15.74455   -0.97143
       H   -10.96688    7.50795   -5.19831
       O   -10.02307    7.42683   -4.95232
      H1   -10.01572    7.42969   -4.01964
       H   -17.05143   11.46253   -4.85585
       O   -17.69598   12.04180   -4.46653
      H1   -18.49796   11.56581   -4.52109
       H   -14.67282   12.75938   -9.87211
       O   -14.49421   13.15084   -8.94431
      H1   -15.38799   13.49699   -8.72127
       H    -7.23929    9.49501   -5.68511
       O    -6.64722    8.71384   -5.71813
      H1    -7.10786    8.01999   -6.26140
       H    -9.18060   11.35169   -8.89578
       O    -8.96783   10.39411   -8.81590
      H1    -9.02810   10.19799   -7.87082
       H   -13.32453    9.37323   -0.32638
       O   -12.66362    9.15717   -1.01469
      H1   -12.51239    8.25065   -0.78491
       H   -15.00336    8.36582   -3.45534
       O   -14.04960    8.15452   -3.36714
      H1   -13.73143    8.53914   -2.52449
       H   -13.75644   15.42097   -2.41017
       O   -14.55520   14.99947   -2.78859
      H1   -15.10500   15.75847   -2.94128
       H    -8.33065   11.53730   -3.68533
       O    -8.16467   12.45406   -3.89959
      H1    -8.12992   12.45451   -4.86143
       H    -9.66708   10.86227   -0.92187
       O    -9.16110   11.26844   -0.13544
      H1    -9.00085   12.17436   -0.42770
       H   -13.84017   14.37556   -4.63343
       O   -14.15163   14.01934   -5.46256
      H1   -13.46473   14.15789   -6.11306
       H   -11.95331   10.85838   -6.30240
       O   -11.61672   10.45189   -7.12493
      H1   -12.34200   10.48105   -7.70103
       H   -10.98691   15.61927   -3.76065
       O   -11.23911   16.58610   -3.87947
      H1   -10.45380   17.12719   -3.60885
       H   -14.24755   13.11214   -2.43133
       O   -13.92535   12.35011   -1.95877
      H1   -14.63957   11.72114   -2.03067
       H   -13.51013    6.91655   -7.18555
       O   -13.95699    6.36860   -7.86239
      H1   -13.21309    6.04995   -8.44532
       H   -16.71691    9.56697   -4.00467
       O   -16.68026    8.73502   -3.53038
      H1   -17.38761    8.23636   -4.04618
       H    -8.41869   13.18823   -2.07598
       O    -8.63336   13.78331   -1.37115
      H1    -9.52341   14.02805   -1.57624
       H   -11.79800   11.46467   -3.84273
       O   -12.14025   11.66347   -4.71770
      H1   -13.09996   11.60069   -4.67294
       H   -12.90752   17.36564   -6.58115
       O   -11.97270   17.43887   -6.40613
      H1   -11.77475   17.00276   -5.55557
       H    -9.36516   13.52446   -9.32441
       O    -9.61146   12.97245   -8.52850
      H1   -10.26422   13.57732   -8.13579
       H   -12.75244   13.71252   -8.25250
       O   -12.24093   14.04458   -7.48360
      H1   -11.90021   14.91561   -7.71313
       H    -9.98186   10.26300   -6.22428
       O    -9.18713    9.86502   -5.79336
      H1    -9.33644    8.95173   -5.64963
       H    -6.55330   12.69947   -6.87621
       O    -7.36746   13.05562   -6.51102
      H1    -8.01498   12.98645   -7.25303
       H   -11.00130   12.06091   -0.73005
       O   -11.74829   12.31471   -0.21552
      H1   -12.54052   12.47717   -0.77057
       H   -14.82747   11.05757   -6.22002
       O   -14.89839   11.29961   -5.30015
      H1   -14.63846   12.21318   -5.33784
       H    -9.86631   10.11087   -2.64011
       O   -10.54637   10.72804   -2.28059
      H1   -11.13158   10.08145   -1.84229
       H   -17.00278   10.56956   -1.58355
       O   -16.33710   11.25822   -1.37900
      H1   -16.80635   12.09690   -1.48503
       H    -7.76737    8.90387   -2.73537
       O    -8.17942    9.69481   -3.09055
      H1    -8.28210    9.58723   -4.07349
       H   -11.38150   13.46909   -4.14988
       O   -10.85629   13.83089   -3.44831
      H1    -9.97221   13.44768   -3.57214
       H   -11.37511   13.68417    0.49334
       O   -11.33644   14.52324    1.03833
      H1   -10.47094   14.84235    1.12097
       H   -12.30858    8.77788   -6.57137
       O   -12.57456    8.08789   -6.00221
      H1   -13.05741    8.38703   -5.20907
       H   -14.95352   10.09034   -8.24814
       O   -14.38929   10.73019   -7.81796
      H1   -14.43045   11.58832   -8.26019
       H   -16.05354   14.41329   -5.93988
       O   -16.98721   14.40837   -6.00494
      H1   -17.25409   13.57840   -5.47917

