102
frame 8 | Written by MDAnalysis XYZWriter (release 2.4.3)
       H    10.98158    6.74846   17.84032
       O    11.74584    6.46306   18.36705
      H1    12.01163    5.70539   17.83068
       H     3.08708   10.87012   18.34759
       O     3.19658    9.94156   18.18078
      H1     4.13522    9.72845   18.06626
       H     5.42105   12.88482   14.85885
       O     5.93550   12.43518   15.57636
      H1     6.00067   11.53080   15.19348
       H     5.29651    3.39756   11.10726
       O     4.44381    3.04003   11.49554
      H1     4.63191    2.92347   12.42860
       H     9.26123    8.55062   16.36766
       O     9.13155    7.65491   16.69531
      H1     8.69149    7.70796   17.51295
       H     9.89312    4.33454   16.13545
       O     9.68145    3.63411   16.74360
      H1    10.52973    3.33367   17.08351
       H     8.53005    2.14632   16.38794
       O     7.84120    1.49411   16.19510
      H1     7.38533    1.73404   15.39959
       H     5.98936    5.61193   17.67833
       O     5.17688    6.11855   17.74988
      H1     4.97483    6.40706   16.86201
       H     7.63445   11.86543   18.50084
       O     7.64227   10.93741   18.85394
      H1     8.57375   10.68006   19.17054
       H     3.28484    5.74827   19.00398
       O     2.94444    5.76161   19.92633
      H1     3.02963    6.68540   20.15395
       H     3.56766    6.66399   15.09134
       O     4.34676    7.20184   15.33425
      H1     3.92476    8.09765   15.51023
       H    10.04763    6.20521   14.44744
       O    10.57924    5.41718   14.67599
      H1    10.47748    4.89524   13.90535
       H     2.85943    5.11267   13.73873
       O     3.67888    4.60743   13.87268
      H1     3.55330    4.04478   14.70448
       H     0.52557    1.26295   16.35568
       O     0.61559    2.22187   16.58869
      H1     0.17894    2.39185   17.42906
       H     8.53100    7.02625   15.31527
       O     8.10676    6.87110   14.45778
      H1     7.67452    5.98863   14.40384
       H     4.78885    6.98724   13.53254
       O     5.11700    7.01290   12.63754
      H1     6.05002    7.26973   12.73464
       H     2.88670   10.20128   15.12006
       O     2.65895    9.43313   15.64857
      H1     2.84665    9.73663   16.53425
       H     5.99566    1.02415   13.55862
       O     5.80207    1.79506   14.15153
      H1     4.87896    1.68026   14.41905
       H     5.47659    0.12052   18.21487
       O     5.44549    0.66562   17.42537
      H1     6.29827    0.98432   17.37490
       H     6.41328    3.74676   13.96110
       O     6.68893    4.58351   13.61567
      H1     5.82530    5.05664   13.60114
       H     0.80407    7.10881   16.12401
       O     0.68811    7.63172   15.29722
      H1     1.35125    8.27612   15.34071
       H     0.84293    4.74207   16.99721
       O     1.65493    5.16829   16.99823
      H1     2.33898    4.51388   17.03116
       H     2.51131    2.71334   16.33576
       O     3.44717    3.01218   16.12103
      H1     3.99656    2.37640   16.65577
       H     1.28486    6.03125   12.41966
       O     1.85413    6.30000   13.09049
      H1     1.36985    6.70311   13.82637
       H     8.41974    4.43015   18.28191
       O     7.66344    4.98352   18.58008
      H1     7.35984    4.58448   19.38822
       H     9.55768    1.74448   19.71956
       O    10.27589    1.69001   19.10927
      H1    10.97867    1.18164   19.49338
       H     9.09313    0.30661   18.36282
       O     8.37518   -0.30394   18.11363
      H1     7.96974    0.11315   17.36676
       H     8.35336    6.66230   19.08521
       O     8.56777    7.54953   19.41206
      H1     9.34645    7.44039   19.97643
       H     5.49093    7.87971   18.10351
       O     5.63779    8.82181   17.93571
      H1     6.48124    9.04655   18.37136
       H     2.48386    3.17311   13.46693
       O     1.71487    2.54675   13.39784
      H1     1.01828    3.04528   12.93049
       H     5.70504    9.85386   13.59730
       O     5.31088   10.33745   12.84119
      H1     6.04849   10.53709   12.22710
       H     9.11061    1.00585   14.89245
       O     9.58245    0.83655   14.06515
      H1    10.44517    1.17925   14.28388
       H     6.90290    8.34968   14.75415
       O     6.42907    9.10748   15.09329
      H1     5.97566    8.73765   15.88462
       H     6.82242    4.51377    9.93565
       O     6.93368    3.88648   10.70237
      H1     6.84941    4.36050   11.54615

