102
frame 10 | Written by MDAnalysis XYZWriter (release 2.4.3)
       H    14.01374  -13.30020    4.27157
       O    13.22865  -13.05821    3.79167
      H1    12.71760  -13.87582    3.73241
       H    15.68796  -15.07162    0.19103
       O    15.60444  -14.18368   -0.26276
      H1    15.14685  -14.46661   -1.08486
       H     9.58342  -13.80155   -1.50107
       O     9.40409  -13.00438   -1.98965
      H1    10.12802  -12.85864   -2.59781
       H    11.46193  -14.13599    1.88237
       O    11.39767  -14.78474    2.59150
      H1    11.83374  -15.59244    2.30205
       H    14.27511   -7.86987    4.04253
       O    13.49752   -7.59097    3.67813
      H1    13.77352   -7.03574    2.92077
       H    13.22276   -9.31077    0.13429
       O    13.39435   -8.96921   -0.75782
      H1    12.84352   -9.51628   -1.41428
       H    17.32740   -9.70927    0.37655
       O    17.26393   -9.28789    1.26479
      H1    16.37022   -9.19158    1.55660
       H    13.53212  -12.42855    1.94340
       O    13.88796  -12.13761    1.09484
      H1    14.55960  -12.76350    0.88367
       H    17.15482  -10.62741    2.81767
       O    16.87492  -10.89734    3.69692
      H1    16.54269  -10.12183    4.12993
       H    15.98107  -12.71296   -2.79664
       O    15.81921  -11.80545   -2.86576
      H1    16.32833  -11.68303   -3.67936
       H    14.62785  -10.48784    2.12520
       O    14.52467   -9.52216    1.94294
      H1    14.05375   -9.16494    2.65852
       H    11.63478  -11.82321    3.68219
       O    11.06651  -11.08561    3.74782
      H1    11.33703  -10.61056    4.54452
       H     8.56778   -9.75805   -0.77830
       O     8.67329  -10.59406   -0.30753
      H1     8.91638  -11.24035   -0.95830
       H    16.87858   -8.66624    5.18131
       O    15.88744   -8.65015    5.25816
      H1    15.67324   -9.39615    5.85870
       H    12.71539   -6.30654   -0.92815
       O    13.24928   -5.48264   -0.87349
      H1    13.73803   -5.56999   -0.07771
       H    13.16533  -12.58560   -0.96599
       O    12.70110  -13.00068   -1.73651
      H1    13.41256  -13.46270   -2.18945
       H    11.54047   -4.60691    2.24462
       O    11.84357   -4.45925    3.13585
      H1    12.58083   -4.95265    3.43019
       H    10.47498   -7.82618    1.69032
       O     9.77033   -7.24762    1.92900
      H1     9.05184   -7.44955    1.41322
       H    14.89418   -8.64237   -1.47614
       O    15.73711   -8.48395   -1.99086
      H1    16.04510   -7.69910   -1.51129
       H     7.82639  -12.36964    2.50264
       O     8.49189  -12.67439    3.17501
      H1     9.30730  -12.65086    2.65765
       H    11.77291   -8.10457   -1.03294
       O    11.32535   -7.23568   -0.90998
      H1    11.13470   -7.00867   -1.82452
       H    12.67925   -9.80782   -4.29336
       O    12.92117   -9.27222   -5.09374
      H1    13.84237   -8.97342   -4.85548
       H    15.77622   -8.11583   -3.81906
       O    15.66296   -8.13637   -4.76810
      H1    15.18155   -7.29835   -5.01720
       H    11.44892   -4.88366   -0.10939
       O    10.85827   -4.61180    0.60928
      H1    10.10186   -5.24577    0.64774
       H    11.40920   -6.94965    5.94606
       O    11.21706   -7.44397    5.15290
      H1    12.11496   -7.43297    4.73142
       H    15.26266   -6.22090    1.00033
       O    14.48620   -5.80570    1.53446
      H1    14.89900   -4.93998    1.79712
       H    14.06627   -5.70691   -2.74843
       O    14.11287   -5.56503   -3.74416
      H1    13.27842   -5.13586   -3.91341
       H    10.32591  -10.39568    0.73247
       O    11.09485  -10.05963    1.18944
      H1    11.00983  -10.44778    2.11197
       H     9.53639   -7.48730   -0.40460
       O     8.58467   -7.72299   -0.38826
      H1     8.14463   -6.90217   -0.61010
       H    17.10184   -6.02026    0.43283
       O    16.60141   -6.81233    0.22143
      H1    17.08415   -7.50656    0.75766
       H    11.04376  -11.79372    0.95015
       O    10.90993  -12.75725    0.88549
      H1    11.22832  -13.00320    0.02077
       H    12.39451  -11.36809   -2.61305
       O    11.96908  -10.52822   -2.86088
      H1    11.11516  -10.68948   -3.28056
       H    17.23951  -10.71166   -1.78210
       O    17.92877  -10.76538   -1.10949
      H1    18.09891  -11.67726   -1.00154
       H    11.52841   -7.93992   -4.24861
       O    10.90151   -7.73193   -3.56118
      H1    10.24734   -7.26532   -4.05549

