102
frame 2 | Written by MDAnalysis XYZWriter (release 2.4.3)
       H    -2.97378   17.74822   -3.06572
       O    -3.56530   17.45195   -2.34080
      H1    -3.32592   18.00654   -1.59217
       H    -4.86443   13.38831  -11.06236
       O    -5.44261   13.27378  -11.81515
      H1    -5.29638   12.37209  -12.12922
       H    -2.99242   17.54258  -13.71739
       O    -2.81220   18.44903  -13.92009
      H1    -2.36954   18.42282  -14.80366
       H    -4.51496   18.88218  -13.80129
       O    -5.45949   19.12638  -13.79485
      H1    -5.74239   19.01235  -12.85764
       H   -10.90610   16.48826   -9.12797
       O   -11.11206   16.64767  -10.10595
      H1   -10.21719   16.89167  -10.41016
       H    -2.38209   18.12056   -5.27115
       O    -1.74317   17.56015   -4.81552
      H1    -0.96910   18.06211   -4.58019
       H   -10.88527   15.44715  -13.77992
       O   -11.02506   14.50751  -13.98728
      H1   -10.50227   14.43743  -14.81485
       H    -7.29362   13.74448  -11.37985
       O    -7.99069   13.80473  -10.65162
      H1    -8.91628   14.03419  -10.97682
       H    -9.85575   17.47035  -13.09836
       O    -9.51973   16.64836  -12.75076
      H1    -8.56435   16.58994  -12.89018
       H   -11.03784   16.76652   -6.50851
       O   -11.49948   16.46789   -7.28877
      H1   -12.34963   16.94942   -7.24946
       H     0.13256   16.46822   -8.08919
       O     0.55751   16.65563   -8.91904
      H1     1.10100   17.45817   -8.81744
       H    -9.69818   18.34992   -5.17408
       O    -9.75991   17.38004   -5.12608
      H1    -9.04554   17.09280   -5.69290
       H    -6.42906   19.01955   -9.34400
       O    -7.29594   18.86977   -9.80594
      H1    -7.30916   17.86831   -9.79557
       H    -6.12916   16.57555  -12.70609
       O    -6.98499   16.34711  -13.17327
      H1    -7.05901   16.65093  -14.10000
       H    -7.86201   17.45891  -16.36493
       O    -8.26114   16.92450  -15.69230
      H1    -8.91007   17.54562  -15.29860
       H    -4.94422   15.83231   -5.06342
       O    -5.77641   16.31838   -5.18029
      H1    -6.08216   16.55843   -4.24072
       H    -8.33323   16.09753   -8.71976
       O    -8.28196   16.44646   -9.62418
      H1    -8.27889   15.67195  -10.15992
       H    -9.82038   17.81195   -3.29150
       O    -9.73020   18.15275   -2.35616
      H1    -9.63680   19.09746   -2.37855
       H    -7.89580   14.87079   -7.05278
       O    -7.86723   15.81890   -6.91955
      H1    -7.14896   15.94739   -6.28927
       H    -6.99213   12.50863  -13.85525
       O    -7.48929   13.33311  -14.01725
      H1    -7.06661   14.04839  -13.58068
       H    -5.16550   18.06363   -3.07891
       O    -6.09746   18.32730   -3.03562
      H1    -6.45943   17.52999   -2.62450
       H    -7.03119   13.20406   -8.59325
       O    -6.97826   13.07874   -7.63228
      H1    -7.58492   12.27206   -7.49007
       H    -1.19053   16.28534   -5.93468
       O    -0.47268   15.75558   -6.40397
      H1    -0.89484   14.87057   -6.61621
       H    -4.06933   19.07319   -5.74902
       O    -4.01231   18.25393   -6.26639
      H1    -4.73918   17.72548   -5.90417
       H   -11.03021   18.53095  -14.74441
       O   -10.13369   18.78708  -14.98991
      H1    -9.89555   19.57088  -14.44406
       H   -11.35358   19.52604  -11.24097
       O   -11.76156   19.46661  -10.34669
      H1   -11.85889   18.51462  -10.17432
       H    -3.77440   15.26403   -7.71862
       O    -3.97963   15.13263   -8.66718
      H1    -3.33398   15.73283   -9.13342
       H    -2.00789   16.00205  -12.75565
       O    -2.95211   15.94488  -13.00933
      H1    -3.55568   15.92860  -12.24383
       H   -10.71747   14.13864  -12.21347
       O   -10.57507   14.22986  -11.25551
      H1   -10.84636   15.13299  -11.02600
       H    -4.05241   13.74626   -4.91679
       O    -3.47418   14.57782   -4.82113
      H1    -3.11241   14.53840   -3.93996
       H    -2.02770   12.87327   -9.41113
       O    -2.80514   12.67674   -8.89803
      H1    -3.27773   13.49081   -8.80445
       H    -4.95566   16.01687  -10.66902
       O    -5.02718   16.71128  -11.34205
      H1    -5.13241   17.46215  -10.75252
       H    -4.62053   20.27591   -8.40597
       O    -4.61007   19.30748   -8.61727
      H1    -4.38076   18.84163   -7.76821
       H    -1.18138   16.48472   -9.81504
       O    -2.09420   16.63852   -9.91251
      H1    -2.24567   17.57177   -9.64003

