102
frame 3 | Written by MDAnalysis XYZWriter (release 2.4.3)
       H   -14.95385  -19.64047    0.79144
       O   -14.95764  -19.44555   -0.15761
      H1   -14.27643  -18.77037   -0.28663
       H   -18.84029  -18.06876   -3.34542
       O   -19.67979  -17.62144   -3.26748
      H1   -19.97289  -17.93789   -2.44599
       H   -15.43731  -12.07752   -0.41767
       O   -16.13059  -11.69752   -0.98756
      H1   -16.90012  -12.24738   -0.81354
       H    -8.75020  -18.78683    1.64519
       O    -9.16072  -19.66500    1.31347
      H1   -10.00731  -19.72680    1.76926
       H   -13.56627  -18.35077   -4.60337
       O   -12.61453  -18.61295   -4.45617
      H1   -12.82058  -19.49146   -4.18812
       H    -9.36185  -17.08277    2.61255
       O    -8.49376  -17.49172    2.76144
      H1    -8.56029  -17.84542    3.62483
       H   -18.61349  -15.13425    5.18599
       O   -19.17053  -14.47761    5.56930
      H1   -20.03299  -14.86785    5.70881
       H   -17.89044  -15.19172   -3.51003
       O   -18.89358  -15.11949   -3.42635
      H1   -19.15033  -15.99725   -3.32397
       H   -17.72791  -13.17694    3.90656
       O   -16.97480  -12.71180    3.52325
      H1   -16.28986  -12.85157    4.26619
       H   -10.64641  -13.18462   -0.45773
       O   -10.07996  -12.44128   -0.74473
      H1   -10.64108  -11.64259   -0.68523
       H   -15.66642  -17.46154    0.37276
       O   -15.66432  -16.63774    0.87759
      H1   -15.58237  -16.96091    1.80210
       H    -9.15777  -19.34547   -0.62890
       O    -9.47698  -19.17884   -1.55342
      H1   -10.25320  -18.52621   -1.60054
       H   -16.23645  -17.42218    3.88296
       O   -15.53510  -17.66166    3.26313
      H1   -15.38109  -18.57822    3.12986
       H   -12.53727  -19.58050    5.36987
       O   -13.15911  -18.82624    5.18220
      H1   -12.91403  -18.33522    4.39830
       H   -14.82962  -13.61931    1.04806
       O   -14.02126  -13.15239    0.63428
      H1   -13.80446  -12.54562    1.35876
       H   -11.65770  -16.61252    2.18716
       O   -10.89750  -16.52508    1.52178
      H1   -11.18797  -15.81105    0.90196
       H   -11.15201  -14.33045    4.86573
       O   -10.38184  -13.89503    4.70130
      H1    -9.68408  -14.54555    4.86572
       H   -12.81316  -18.29271    7.25024
       O   -13.05801  -18.02406    8.13872
      H1   -13.41895  -18.81031    8.66217
       H   -19.36865  -12.88964   -0.61011
       O   -18.59835  -13.37088   -0.99707
      H1   -18.86238  -13.76222   -1.83515
       H   -13.83338  -10.67037    2.51642
       O   -13.28326  -11.45025    2.60788
      H1   -12.46108  -10.99750    2.92203
       H   -18.13109  -14.94240    0.05079
       O   -18.13293  -15.59905    0.78002
      H1   -17.16739  -15.81361    0.86238
       H   -18.58088  -19.52169    5.86890
       O   -19.24522  -18.78275    5.69655
      H1   -19.60487  -18.97809    4.80814
       H   -13.88889  -12.34721    3.92753
       O   -14.29116  -12.90858    4.60995
      H1   -14.15326  -12.41264    5.43789
       H   -14.46734  -16.84980    7.90745
       O   -15.21706  -16.33701    7.51350
      H1   -15.46680  -15.65275    8.12644
       H   -17.92820  -17.48027    5.31902
       O   -17.40360  -16.73765    4.95812
      H1   -16.59630  -16.70625    5.54989
       H   -12.42548  -14.91544   -1.15589
       O   -12.04922  -14.58398   -0.35310
      H1   -12.79731  -14.05117    0.10265
       H   -12.80176  -12.84428    8.20967
       O   -12.12147  -13.18557    7.65319
      H1   -12.51894  -13.88544    7.09855
       H   -15.38765  -19.14395   -5.17413
       O   -15.29970  -18.24305   -4.75596
      H1   -15.39887  -17.52354   -5.45873
       H   -13.77999  -14.51719    5.19185
       O   -13.34571  -15.23522    5.65199
      H1   -14.05572  -15.63199    6.09947
       H   -11.82076  -17.12506   -1.64303
       O   -11.22408  -17.19738   -2.39381
      H1   -11.72289  -17.76425   -3.02132
       H   -13.63431  -16.98003    3.16863
       O   -12.76942  -16.72341    3.41666
      H1   -12.96053  -16.16976    4.20174
       H   -15.72295  -15.74568   -3.22641
       O   -16.38189  -15.82722   -3.91977
      H1   -16.55553  -16.78032   -3.95765
       H   -13.46623  -14.28351   -2.75506
       O   -13.92624  -15.12929   -2.56441
      H1   -14.02642  -15.50021   -3.44576
       H   -12.44846  -17.56872    0.29840
       O   -13.07877  -17.41744   -0.42075
      H1   -13.59479  -16.64285   -0.18252

