102
frame 1 | Written by MDAnalysis XYZWriter (release 2.4.3)
       H     2.23672   18.56810   -7.73317
       O     2.44397   17.96145   -8.44707
      H1     3.29873   17.60399   -8.18049
       H     8.30072   20.15847   -3.12219
       O     8.06540   19.62394   -3.89078
      H1     7.31682   19.11987   -3.60746
       H    -2.38794   18.08684   -3.45813
       O    -2.57694   17.81131   -2.54773
      H1    -2.23548   18.55270   -2.02853
       H    -0.13931   15.64382   -2.67453
       O    -0.84662   15.75213   -2.00094
      H1    -1.48056   16.42963   -2.29427
       H     0.37445   12.77044   -7.77826
       O     1.27579   12.58532   -8.12938
      H1     1.56439   13.46178   -8.39962
       H     6.37203   13.27666   -1.42306
       O     5.84608   13.52390   -2.15678
      H1     6.25015   13.13318   -2.97641
       H     3.67977   14.40070   -8.50032
       O     3.16718   14.36052   -9.31271
      H1     2.33324   14.80039   -9.15176
       H     6.43621   13.08287   -5.16184
       O     7.19803   12.76061   -4.58663
      H1     7.08296   11.82559   -4.36046
       H    -2.26249   18.95298   -5.40788
       O    -1.54896   18.47571   -4.87835
      H1    -0.86830   19.13336   -4.65847
       H    10.50322   16.24676   -8.47541
       O     9.62446   16.02557   -8.76726
      H1     9.70904   15.37507   -9.49943
       H     6.15294   16.97900   -2.58276
       O     6.92682   17.60546   -2.41044
      H1     7.57982   17.52838   -3.07524
       H     5.85884   16.72186   -8.91320
       O     6.52506   16.88374   -9.61166
      H1     7.31867   16.36249   -9.46659
       H     2.35113   16.95350   -1.11078
       O     2.40989   17.18988   -2.05195
      H1     2.46712   18.17275   -2.04993
       H     3.49552   14.86510    1.26139
       O     3.52950   15.43290    0.39687
      H1     3.95751   16.28421    0.57497
       H     0.33127   15.58353   -7.81371
       O     0.80468   15.71590   -8.66982
      H1     1.09671   16.64307   -8.74730
       H     1.92240   19.43670  -11.20841
       O     2.72948   19.27130  -10.74031
      H1     2.48843   18.69544   -9.97270
       H     5.05558   17.29989   -6.85690
       O     4.80319   16.52038   -7.46796
      H1     4.45726   15.86197   -6.86221
       H     7.91810   16.15383   -1.33202
       O     8.45457   15.71014   -0.68878
      H1     8.19562   16.17290    0.13028
       H     6.17910   18.41804  -10.28401
       O     5.89948   19.22796  -10.76790
      H1     4.93614   19.44467  -10.80669
       H     8.67424   19.11220   -8.19035
       O     8.99273   18.54669   -7.45760
      H1     9.11450   17.69609   -7.96081
       H     5.51971   18.51427   -1.32972
       O     5.00017   18.88215   -0.62228
      H1     4.16951   18.83274   -1.11142
       H     8.94500   12.88278   -5.04976
       O     9.87426   12.63572   -5.33324
      H1    10.14661   13.40288   -5.83601
       H     1.93129   11.51151   -6.52353
       O     2.09042   11.43305   -5.52379
      H1     1.63827   12.21676   -5.14662
       H    -1.28128   17.11451    0.65927
       O    -0.54791   17.32361    0.08407
      H1    -0.55317   16.66766   -0.61992
       H     4.00507   16.43255   -2.55251
       O     4.79407   15.99984   -2.92105
      H1     4.95044   15.13763   -2.43914
       H     5.11084   19.14223   -5.61133
       O     5.24164   18.34121   -5.07248
      H1     4.34067   18.02189   -4.81931
       H     7.01022   17.02329   -5.13515
       O     7.97511   16.84760   -5.15422
      H1     8.35318   17.46540   -5.79866
       H     1.72492   14.11588   -3.36931
       O     0.94411   14.09466   -3.94446
      H1     1.09846   14.72450   -4.59919
       H     3.97209   14.87858   -4.48249
       O     4.03572   14.73490   -5.45162
      H1     3.98054   13.82055   -5.73188
       H    -1.10418   16.60471   -5.90140
       O    -0.61087   15.81702   -6.27873
      H1    -1.25929   15.11439   -6.41085
       H    10.61329   17.42853   -3.56005
       O    10.42780   16.66732   -4.07213
      H1     9.44518   16.72076   -4.29259
       H     5.97350   13.24925   -7.73387
       O     5.35678   12.84209   -7.14765
      H1     5.27513   11.95480   -7.50983
       H     7.60139   13.59933    0.61158
       O     6.63568   13.70093    0.44852
      H1     6.55246   14.67432    0.50110
       H     2.95430   14.31217   -1.16304
       O     2.97701   13.52241   -1.73516
      H1     3.91702   13.42662   -2.03029

