102
frame 4 | Written by MDAnalysis XYZWriter (release 2.4.3)
       H     8.99794   -1.58653   -0.58750
       O     8.47513   -2.25656   -1.01400
      H1     9.11552   -2.99176   -1.17162
       H     4.10031   -0.97059   -3.03933
       O     4.16820   -1.69525   -3.64423
      H1     5.07195   -2.07819   -3.39615
       H    11.73496   -1.98249    0.03945
       O    11.65942   -2.10233   -0.96491
      H1    12.54283   -2.12559   -1.28691
       H     6.00207   -2.36757    0.94615
       O     6.12432   -3.03543    0.27053
      H1     6.88827   -2.72044   -0.18997
       H    14.29634   -2.44115   -2.98799
       O    14.08123   -3.03037   -2.21927
      H1    13.94479   -3.93402   -2.51395
       H     7.09584  -10.14849   -1.53918
       O     8.01318  -10.30483   -1.38348
      H1     8.52773   -9.82011   -2.05233
       H     6.76197   -5.41303    2.56188
       O     7.43467   -5.09358    1.89448
      H1     6.94078   -4.47387    1.32332
       H    11.93914   -3.94383   -0.56647
       O    11.68908   -4.89664   -0.46132
      H1    12.30606   -5.40243   -1.08846
       H     6.54675   -5.09420   -7.33439
       O     6.77475   -4.16056   -7.31379
      H1     5.92637   -3.67507   -7.20857
       H    12.13977   -1.96220    2.29713
       O    11.39168   -2.06539    1.70227
      H1    11.18590   -3.01984    1.97644
       H     9.47622   -6.27979   -1.03463
       O     8.98697   -6.10388   -1.88495
      H1     9.12367   -7.00229   -2.22568
       H     9.31137   -6.32780   -5.07835
       O     9.76967   -7.12142   -5.42291
      H1     9.62346   -7.18118   -6.31759
       H    15.89711   -3.82992    0.33304
       O    14.91090   -3.84829    0.25141
      H1    14.84787   -3.45317   -0.65107
       H    12.41972   -9.55360   -3.87922
       O    13.18637   -9.08848   -3.57637
      H1    13.83175   -9.73153   -3.22297
       H    10.23051    0.81889   -2.16732
       O     9.51675    1.51418   -2.13103
      H1     8.74365    1.09730   -2.50673
       H     8.61495   -3.85874   -6.15419
       O     9.23855   -3.24223   -5.88870
      H1     8.96999   -2.91715   -5.03545
       H    12.68682    0.48177   -1.17957
       O    12.03792    0.45649   -1.89825
      H1    11.63091   -0.46000   -1.88560
       H    13.86290   -8.13541   -5.17225
       O    14.00492   -7.87899   -6.09644
      H1    14.58922   -7.08378   -6.13267
       H    11.62531   -5.14811    2.24143
       O    11.59026   -4.52220    2.98383
      H1    10.74509   -4.68674    3.47472
       H     4.60588   -3.78876   -2.85322
       O     5.35006   -4.12949   -2.38880
      H1     5.27502   -3.61872   -1.57675
       H     9.82538   -4.50214   -2.92894
       O    10.07230   -3.61097   -2.95835
      H1    10.80243   -3.44536   -2.31869
       H     9.24153   -0.55314   -7.67117
       O     9.33711   -1.45833   -8.01297
      H1     9.26059   -2.04230   -7.22539
       H    12.78383   -3.51277   -6.51938
       O    13.57928   -2.89178   -6.63162
      H1    13.10266   -2.07742   -6.88140
       H    13.29876   -7.08721   -2.75242
       O    13.30968   -6.11742   -2.72434
      H1    12.63578   -5.84743   -3.36809
       H    13.05002   -0.44106   -4.00180
       O    13.87647   -0.90967   -4.15714
      H1    13.55858   -1.46217   -4.84842
       H    12.44895   -7.16945    1.54923
       O    11.73826   -7.81646    1.82115
      H1    12.16264   -8.63861    1.51995
       H    10.21543   -7.43835    0.84039
       O     9.29055   -7.46046    0.54559
      H1     8.91484   -6.71011    1.10296
       H     7.83190   -0.75289   -3.41004
       O     8.41080   -1.47654   -3.77512
      H1     8.57407   -2.11125   -3.06575
       H    11.14827   -4.62674   -5.60924
       O    11.97813   -4.94553   -5.93110
      H1    11.88024   -5.90355   -5.97149
       H     6.63321   -8.19944   -3.90451
       O     5.74689   -8.11262   -3.60669
      H1     5.79575   -7.84462   -2.67412
       H     5.79222   -5.71444   -1.48037
       O     6.07774   -6.55045   -1.18384
      H1     6.97915   -6.48518   -0.86779
       H     6.99476   -4.90578   -5.28354
       O     7.43311   -5.44851   -4.62420
      H1     7.24201   -5.10319   -3.74187
       H    10.23532   -9.41463   -2.73750
       O     9.44818   -8.98960   -3.13310
      H1     9.78548   -8.56367   -3.90850
       H     9.24057    0.95558   -0.29439
       O     9.37766    0.29150    0.38187
      H1    10.08592    0.60294    0.92542

