102
frame 3 | Written by MDAnalysis XYZWriter (release 2.4.3)
       H   -12.12452  -14.71842   14.61642
       O   -12.39641  -15.61853   14.48218
      H1   -13.31494  -15.57360   14.20875
       H   -11.62253   -7.60495   17.89701
       O   -12.42421   -8.01361   18.21232
      H1   -12.75430   -7.64922   19.01014
       H   -10.24576  -10.01493   17.68167
       O   -10.91527  -10.20864   18.32612
      H1   -11.47486   -9.43991   18.27589
       H   -13.46250  -10.78103   16.74120
       O   -12.96985  -11.59573   16.90806
      H1   -12.39127  -11.31086   17.60428
       H   -16.56862  -14.86053   19.59560
       O   -16.85471  -14.70166   18.68263
      H1   -16.22166  -14.15192   18.25024
       H    -9.83670   -8.38791   16.26749
       O    -9.62543   -9.29354   15.93264
      H1    -9.64397   -9.26891   14.97928
       H    -8.20021  -14.28837   16.02461
       O    -7.57863  -15.00378   15.81629
      H1    -7.52720  -15.03288   14.84502
       H   -14.52094  -12.80009   16.83772
       O   -15.47307  -12.91271   16.97872
      H1   -15.89481  -13.43000   16.30964
       H   -12.72146  -10.11575   11.46318
       O   -11.93942  -10.48617   11.83196
      H1   -12.13920  -11.39479   11.86775
       H   -16.81318   -9.00536   13.48741
       O   -16.54754   -8.71004   14.38592
      H1   -15.62502   -8.95220   14.42811
       H   -11.96620  -12.65061   16.01321
       O   -11.56168  -13.29126   15.44573
      H1   -11.45037  -12.86312   14.59846
       H    -7.27555   -8.59583   15.78586
       O    -6.65613   -7.91504   15.54464
      H1    -6.73340   -7.60774   14.62986
       H   -13.46044  -12.10939   13.23561
       O   -14.13073  -11.54220   13.60179
      H1   -14.91866  -11.53487   13.05911
       H    -5.36614   -8.73519   18.91361
       O    -6.34009   -9.04804   18.86320
      H1    -6.22433   -9.79773   18.24957
       H   -18.90032  -12.48259   17.75916
       O   -19.71797  -12.01058   17.86554
      H1   -20.39626  -12.38509   17.24699
       H    -8.96991  -16.92584   18.00204
       O    -8.92536  -17.02888   17.03692
      H1    -8.36288  -16.34283   16.67863
       H   -14.73016  -15.49646   12.72626
       O   -14.55285  -14.67717   13.22945
      H1   -15.19765  -14.39246   13.85816
       H   -10.14394  -13.02835   16.66485
       O    -9.39563  -13.22633   17.19239
      H1    -9.77310  -13.54104   17.99637
       H   -11.75836  -16.04992   16.04975
       O   -11.62788  -16.53183   16.93315
      H1   -10.65150  -16.50430   16.89459
       H    -5.56255  -11.51737   15.40054
       O    -6.33783  -11.14308   14.98621
      H1    -6.99562  -11.07463   15.67613
       H   -18.21663   -9.62560   17.12724
       O   -19.08340   -9.21808   17.17623
      H1   -19.64174   -9.91694   17.60825
       H   -14.53155   -6.27196   19.23048
       O   -15.35281   -6.67950   18.87941
      H1   -15.94577   -5.91260   18.75087
       H   -13.51890   -6.77355   16.78244
       O   -14.07154   -6.15195   16.25410
      H1   -15.04824   -6.32536   16.42486
       H   -11.62912  -13.45455   11.53552
       O   -12.19658  -13.14210   12.28263
      H1   -12.75450  -13.92851   12.43920
       H   -16.61456   -7.18444   15.42054
       O   -16.67337   -6.38909   16.02786
      H1   -16.91153   -6.69161   16.88118
       H   -14.54429  -17.82450   16.54952
       O   -13.83312  -18.22918   17.08392
      H1   -12.97231  -17.79658   16.84279
       H   -15.98976   -9.50805   17.86192
       O   -15.81452   -9.38887   18.76916
      H1   -15.72416   -8.44693   18.80270
       H   -11.17999   -7.13837   13.32116
       O   -10.76062   -6.33082   13.03617
      H1   -11.23038   -5.61599   13.48505
       H    -9.31392   -9.39621   12.62400
       O   -10.02162   -9.21770   13.24257
      H1   -10.78896   -9.53718   12.69541
       H    -9.64715   -6.96531   18.15528
       O   -10.06813   -6.77451   17.28024
      H1    -9.30897   -6.48633   16.75042
       H   -16.27560  -11.32298   16.50275
       O   -16.70843  -10.44549   16.40603
      H1   -16.69918  -10.24433   15.40175
       H    -7.99560  -12.25733   17.46724
       O    -7.17046  -11.69810   17.67241
      H1    -6.52737  -12.27768   18.11005
       H   -17.46383  -14.43952   15.21781
       O   -16.50154  -14.53278   15.23527
      H1   -16.21438  -15.39161   15.40469
       H   -13.84720   -9.89705   14.05551
       O   -13.79305   -8.91650   14.23433
      H1   -13.56993   -8.36871   13.45699

