102
frame 6 | Written by MDAnalysis XYZWriter (release 2.4.3)
       H     9.02718  -11.99486    9.55238
       O     9.22239  -12.86218    9.13777
      H1     8.61725  -13.46708    9.64427
       H     5.08852   -9.99971    9.49223
       O     5.37952  -10.74256   10.15098
      H1     6.30227  -10.49137   10.29066
       H     9.02064  -13.79496   13.55650
       O     9.32653  -14.57076   14.00757
      H1     8.90539  -14.58832   14.89668
       H     8.91097   -9.60281    7.03796
       O     8.27168   -9.54006    6.27636
      H1     8.74006   -8.99144    5.65304
       H     8.00032  -11.17584   11.55511
       O     8.04436  -10.76130   10.66197
      H1     8.56398  -10.00997   10.87959
       H     6.62413   -7.03084    6.75193
       O     6.94318   -7.48118    7.60191
      H1     7.51672   -8.18332    7.22350
       H     8.76134  -13.47446    7.39471
       O     8.21962  -14.04055    6.82033
      H1     8.45123  -13.80214    5.89141
       H    12.20631  -13.39059   14.68563
       O    11.59935  -13.41926   15.42624
      H1    10.82633  -13.84305   15.05693
       H    11.43813  -11.78056   14.92642
       O    11.44322  -10.82026   14.90696
      H1    11.54207  -10.69386   13.96551
       H     5.03107  -13.66320   12.41856
       O     5.73217  -14.04793   12.92192
      H1     6.20417  -14.59636   12.29650
       H    10.15491  -16.03665   13.88937
       O    10.84366  -16.73911   13.96206
      H1    10.40798  -17.50075   13.62580
       H    14.07827  -13.02951   10.31045
       O    14.06714  -12.11334    9.98631
      H1    13.24007  -11.97182    9.56846
       H     8.14750   -8.63400   13.74355
       O     8.71127   -7.99460   13.28241
      H1     9.00625   -8.39353   12.40630
       H    11.09586   -6.18925   14.51417
       O    11.36504   -6.96690   14.01577
      H1    10.50977   -7.38400   13.80002
       H     5.25402  -12.51501    9.87049
       O     4.86188  -13.32713    9.52681
      H1     5.50236  -13.99284    9.75863
       H     6.91455  -17.53641   11.92112
       O     7.38853  -16.76892   12.22603
      H1     7.28320  -16.65092   13.17761
       H     8.43527   -6.32835   11.65097
       O     7.72710   -5.69556   11.55822
      H1     7.84385   -5.35051   10.64610
       H    11.26046  -11.91550   11.80582
       O    11.41438  -10.99562   12.09757
      H1    12.32463  -10.78436   12.19723
       H     3.74484   -9.96010   14.58015
       O     4.27171   -9.50220   13.89661
      H1     3.96825   -9.77576   13.02745
       H    10.78284   -9.19334   11.35954
       O    10.08844   -8.61605   11.00476
      H1    10.50690   -7.74190   10.76494
       H     5.34077  -12.05957    6.63836
       O     4.55178  -12.50808    6.88265
      H1     4.62659  -12.85884    7.76687
       H     7.52562  -11.59568   13.63025
       O     7.87762  -12.39373   13.12914
      H1     7.15302  -13.02916   13.12434
       H     4.97304   -8.14470    8.28631
       O     4.32142   -8.75036    8.69256
      H1     3.59131   -8.29909    9.21840
       H     4.67007   -6.39803   12.68732
       O     4.70135   -6.82003   13.57356
      H1     4.81999   -7.78356   13.61281
       H    13.25062  -15.56797   11.14133
       O    13.20971  -14.56260   10.94468
      H1    12.91091  -14.27165   11.78944
       H     3.95057  -10.43383   11.04003
       O     3.15662  -10.31285   11.52941
      H1     3.00871  -11.29203   11.72708
       H     7.65800   -8.59203   16.83161
       O     8.06426   -9.41143   16.60985
      H1     8.99966   -9.37909   16.91951
       H     7.26864   -9.64756   15.05214
       O     6.95827   -9.94396   14.15893
      H1     6.01756   -9.93783   14.20187
       H     7.12856  -15.26101    9.52385
       O     7.35889  -14.65712   10.23941
      H1     7.60236  -15.16158   11.04494
       H     6.38400   -6.50417   14.49187
       O     7.27723   -6.29969   14.81900
      H1     7.78006   -6.76858   14.16937
       H     2.64622  -13.00346   12.00772
       O     3.62568  -13.06221   11.95544
      H1     3.86240  -13.42598   11.09448
       H     4.79777  -15.09478   14.03543
       O     4.64230  -16.01517   14.19971
      H1     4.06176  -16.24568   13.44107
       H    11.22098  -12.23156    7.93289
       O    12.03144  -11.66458    7.97624
      H1    12.22953  -11.33430    7.10890
       H    10.17209   -9.09922    9.40347
       O    10.24704   -9.37888    8.45649
      H1    10.97874  -10.03012    8.48258

