102
frame 5 | Written by MDAnalysis XYZWriter (release 2.4.3)
       H    -0.25580    9.98993    7.40781
       O    -1.08335   10.45024    7.66175
      H1    -1.40347   10.18179    8.49059
       H    -0.88950    3.94439    0.86035
       O    -1.29320    3.55272    0.04245
      H1    -1.77621    2.76615    0.31439
       H     0.39832    3.15028    2.48139
       O     0.12583    4.09531    2.25866
      H1     0.88832    4.50532    1.80872
       H     2.98602    3.75621    9.69093
       O     3.44938    4.05105   10.46552
      H1     4.31781    3.74565   10.53894
       H    -0.44140    5.09230    4.56611
       O    -0.02931    5.17285    5.41301
      H1     0.90669    5.14802    5.26318
       H     2.02476    5.09623   -0.05602
       O     2.73161    4.43429   -0.01677
      H1     2.37732    3.59263    0.21179
       H     2.73138    5.82149    6.71299
       O     3.30008    5.87212    5.95679
      H1     3.99424    5.21932    5.90957
       H     4.67224    0.04223    4.40378
       O     3.80158    0.21122    4.76808
      H1     3.91959    1.08869    5.09121
       H    -1.87595    4.54799    9.15712
       O    -2.66650    4.02092    9.00649
      H1    -3.41484    4.60947    8.80822
       H    -4.42035    7.10112    0.86107
       O    -4.36297    6.13710    1.01769
      H1    -3.57244    5.94932    1.51045
       H     6.13594    5.01849    5.22546
       O     5.55864    4.38265    5.69238
      H1     5.82359    4.67233    6.58177
       H     0.42775    7.22972    0.71169
       O     1.22546    6.74159    0.99024
      H1     1.65270    7.39271    1.56705
       H     0.57979    8.72220    6.27952
       O     1.05160    8.88303    7.12922
      H1     1.88235    9.37254    6.88500
       H     0.22042    5.94403    9.40628
       O    -0.39284    5.56367   10.05869
      H1    -0.51005    6.33884   10.71244
       H    -1.61700    4.78968    2.81214
       O    -2.36304    5.37739    3.08421
      H1    -2.97663    4.80408    3.51527
       H     2.79699    8.49557    3.26762
       O     1.90019    8.54975    2.87440
      H1     1.95689    9.37891    2.44905
       H     6.86911    6.21622    7.73825
       O     6.30065    5.47675    8.06518
      H1     5.49153    5.85948    8.44946
       H    -2.23710    6.66158    7.71216
       O    -2.04267    6.59087    6.76480
      H1    -1.18466    6.18040    6.79027
       H     0.73711   -0.40887    5.93346
       O    -0.11509   -0.76749    5.59436
      H1    -0.73780   -0.03248    5.71841
       H    -1.59343    8.98378    3.57371
       O    -1.55370    9.45754    2.69490
      H1    -2.33868   10.02218    2.71534
       H    -1.06173    8.51685    1.21861
       O    -1.12239    8.01458    0.39483
      H1    -1.08443    8.66399   -0.30547
       H     3.09385   -0.08195    6.15753
       O     2.54105   -0.48111    6.89757
      H1     2.76467   -0.25798    7.76469
       H    -1.73143    3.37528    7.64410
       O    -1.04094    3.09378    7.08915
      H1    -0.88796    3.94476    6.56718
       H     0.80017    3.03149    7.86120
       O     1.73061    2.88680    8.13938
      H1     2.23914    2.83195    7.31920
       H     0.87677    0.56649   10.66236
       O     1.26593    1.50702   10.59802
      H1     1.31380    1.72297    9.61079
       H     2.35266    6.22383    8.50535
       O     1.46982    6.19681    8.04319
      H1     1.31009    7.14052    7.74577
       H     0.41516    8.20962    4.06753
       O    -0.12385    8.11314    4.86054
      H1    -0.68463    7.34510    4.67007
       H     3.90005    5.69652    9.94091
       O     3.93973    6.49506    9.38507
      H1     3.91094    7.24719    9.98800
       H    -1.49502    1.95683    5.96330
       O    -1.74068    1.24577    5.36612
      H1    -1.25049    1.36599    4.52059
       H    -4.92757    4.73398    4.33314
       O    -4.11854    4.32785    4.70221
      H1    -4.29136    3.36409    4.57673
       H    -0.62765    0.98045    2.09120
       O     0.08926    1.31265    2.69850
      H1     0.85308    0.73930    2.45182
       H     4.12036    2.46692    7.05350
       O     3.60576    2.58578    6.25073
      H1     4.04420    3.29543    5.83271
       H     4.13006    7.43289    4.73938
       O     4.44366    7.78486    3.90230
      H1     4.77511    6.99248    3.42093
       H    -3.12283    8.00634    5.96059
       O    -3.82915    8.55165    5.58322
      H1    -3.42797    9.43698    5.56839

