102
frame 7 | Written by MDAnalysis XYZWriter (release 2.4.3)
       H   -19.44422    1.27015   -5.40348
       O   -19.35677    1.43149   -6.33551
      H1   -18.41241    1.59900   -6.46149
       H   -11.49823    7.23925   -4.81830
       O   -10.61684    6.99734   -4.79642
      H1   -10.43070    7.05699   -3.85429
       H   -18.03993   -0.46606   -9.42670
       O   -17.26307    0.00968   -9.58654
      H1   -17.32211    0.82654   -9.09880
       H   -13.16753    2.66713   -6.87932
       O   -12.85839    2.21823   -6.04189
      H1   -11.98063    1.90254   -6.39983
       H   -11.08577   -0.51897  -10.75667
       O   -10.64999    0.30562  -10.70609
      H1   -10.60964    0.60394  -11.61969
       H   -10.43682    4.57422   -7.05545
       O   -10.26077    5.03436   -7.86108
      H1    -9.93175    4.31160   -8.45835
       H   -10.73134    4.07820   -4.35782
       O   -10.04512    4.40139   -4.95713
      H1   -10.23458    5.32754   -5.12569
       H   -15.70478    4.36503   -2.49459
       O   -15.02291    4.56250   -3.13031
      H1   -14.92353    5.53037   -3.04723
       H   -17.23185    4.25241  -10.01826
       O   -17.16601    3.31148  -10.31282
      H1   -18.00190    2.92988  -10.01243
       H    -7.53685    2.62944   -6.33396
       O    -7.59676    3.55944   -5.97645
      H1    -8.45094    3.67255   -5.56607
       H   -15.10950   -1.49813   -8.21677
       O   -15.43414   -2.14230   -8.88803
      H1   -15.62601   -1.57765   -9.62681
       H   -15.35826   -2.32935   -4.96205
       O   -15.71929   -1.42200   -4.98683
      H1   -15.23535   -0.82582   -4.45683
       H   -14.95083    0.88529  -10.97512
       O   -14.86213    1.84399  -11.04383
      H1   -15.53859    2.41517  -10.55882
       H   -13.32000    1.61972  -10.19812
       O   -12.62375    1.90559   -9.53174
      H1   -11.79987    1.44865   -9.74540
       H   -12.33976    5.13832  -11.19736
       O   -12.09457    4.56346  -11.92119
      H1   -12.95446    4.28160  -12.31828
       H   -16.88370    4.46997   -5.80559
       O   -16.23676    3.80001   -5.64800
      H1   -15.79259    4.13235   -4.83926
       H   -14.93963    7.17932   -8.13104
       O   -15.69309    7.63928   -8.45206
      H1   -16.26715    6.94586   -8.85100
       H   -13.30896    6.80071   -6.67557
       O   -13.62946    6.23015   -7.42004
      H1   -12.93868    6.36344   -8.10146
       H   -11.02344    3.21820  -12.07678
       O   -10.13878    2.83257  -12.32705
      H1    -9.66947    3.54560  -12.75304
       H   -13.85840    3.24883   -8.83875
       O   -14.29768    3.60814   -8.02643
      H1   -13.87507    4.47478   -7.92450
       H   -13.08793   -0.05171   -3.88561
       O   -13.93380    0.42875   -3.79630
      H1   -13.94078    1.02890   -4.49929
       H    -9.43813    3.02711  -10.53983
       O    -9.14378    3.02056   -9.62843
      H1    -9.23535    2.11022   -9.31433
       H   -11.65763    6.99381   -9.51595
       O   -12.01485    6.09057   -9.55645
      H1   -11.43722    5.62433   -8.91097
       H   -16.31024    2.41141   -6.70696
       O   -16.67387    1.64091   -7.20753
      H1   -15.86696    1.20390   -7.56184
       H   -10.75430    1.20640   -1.17133
       O   -10.59224    1.37273   -2.09778
      H1   -11.19981    2.08194   -2.37761
       H   -13.47803    0.71009   -8.48039
       O   -13.91917    0.11625   -7.89364
      H1   -13.60740    0.47358   -7.05559
       H    -9.86335   -1.39653   -4.89404
       O    -9.01894   -1.49168   -5.35234
      H1    -9.06110   -2.37877   -5.69195
       H   -12.22760   -2.22661   -8.57045
       O   -12.49575   -2.15981   -9.51719
      H1   -13.35688   -1.68005   -9.34677
       H   -12.64831    3.04956   -4.41446
       O   -12.34024    3.28518   -3.51456
      H1   -12.96387    3.94321   -3.19320
       H   -14.09541    0.10690   -2.02827
       O   -14.00846    0.04275   -1.10733
      H1   -14.52793    0.81556   -0.75777
       H   -11.33784   -0.01173   -3.15087
       O   -11.38191   -0.86204   -3.61308
      H1   -11.61589   -1.60137   -3.04743
       H   -17.15894    2.81389   -4.23671
       O   -17.53749    2.29779   -3.50683
      H1   -16.95088    1.54172   -3.47907
       H   -10.57108    0.53582   -7.67614
       O   -10.48895    1.34377   -7.17537
      H1   -10.15722    1.07575   -6.34845
       H   -13.21536    8.67087   -5.78943
       O   -13.17421    7.78303   -5.34950
      H1   -13.62382    7.83841   -4.47935

