102
frame 0 | Written by MDAnalysis XYZWriter (release 2.4.3)
       H    17.41082  -11.03003  -16.76850
       O    18.20588  -11.35105  -16.38638
      H1    18.64027  -10.65868  -15.80820
       H    15.67551   -2.15429  -15.07427
       O    16.02542   -1.78536  -14.30695
      H1    16.95650   -1.76890  -14.41359
       H    10.58294   -6.98257  -15.89416
       O    10.47452   -7.33262  -16.79678
      H1    10.41920   -6.55083  -17.35450
       H    16.61298   -6.99065  -19.55786
       O    17.27551   -7.42319  -18.98276
      H1    16.80389   -7.55248  -18.12658
       H    13.76522   -0.67897  -17.06172
       O    13.66619    0.20783  -16.70774
      H1    14.58165    0.50820  -16.64150
       H    10.96143   -1.65812  -17.70223
       O    11.63546   -2.41285  -17.75681
      H1    11.21399   -3.28168  -18.02169
       H    16.32701   -2.71291  -12.87710
       O    16.26267   -3.42093  -12.23736
      H1    15.73080   -4.10710  -12.65310
       H    14.42175   -6.58303  -12.73779
       O    14.65644   -5.83719  -13.25980
      H1    13.91407   -5.32582  -13.46189
       H    11.84093   -3.80757  -14.48888
       O    12.58697   -4.39888  -14.23327
      H1    12.21281   -5.29520  -14.40163
       H    18.86510   -0.56446  -14.45675
       O    18.76546   -1.30259  -13.82248
      H1    19.59417   -1.85862  -13.84110
       H    11.25138   -2.63836  -11.48894
       O    11.37005   -3.58100  -11.77080
      H1    12.02213   -3.70408  -12.41117
       H    15.83989   -2.37958  -17.31148
       O    15.03704   -2.31987  -16.73525
      H1    14.61131   -3.18436  -16.86030
       H    14.26424   -6.20127  -18.64578
       O    14.63432   -6.72005  -19.40433
      H1    14.97854   -6.00054  -19.95630
       H    11.67139   -8.55528  -16.95175
       O    12.31828   -9.29802  -17.05953
      H1    12.57472   -9.23254  -18.00150
       H    15.09145  -11.42314  -18.47685
       O    15.99730  -11.15449  -18.40728
      H1    16.23723  -10.49606  -19.10489
       H    16.89598   -2.97516  -19.21218
       O    17.26407   -2.29604  -18.74995
      H1    18.16357   -2.51052  -18.51572
       H    19.68105   -7.48063  -12.52320
       O    19.88889   -6.78213  -13.18490
      H1    19.39778   -6.00193  -12.88052
       H    15.56395   -6.51611   -8.78340
       O    15.38361   -5.77558   -8.20674
      H1    15.19569   -5.05755   -8.80215
       H    19.58613   -4.11589  -11.75694
       O    18.82893   -4.61533  -12.05184
      H1    18.11716   -4.00286  -11.96819
       H    14.81138  -10.03885  -14.88958
       O    14.76048  -10.35942  -13.95997
      H1    14.39339  -11.22631  -14.12549
       H    17.01189   -7.24925   -9.61022
       O    16.20007   -7.72506   -9.86602
      H1    16.48906   -8.62047  -10.03125
       H    12.77502   -8.53348  -12.36763
       O    12.39865   -8.96832  -13.15315
      H1    13.24732   -9.34747  -13.50183
       H     9.94657   -4.81391  -18.81417
       O    10.91453   -4.84356  -18.77592
      H1    11.29071   -4.68760  -19.64335
       H    18.32385   -5.52006   -8.95069
       O    18.52454   -6.23552   -9.72829
      H1    18.56656   -5.61003  -10.49793
       H    20.33132   -9.52585  -11.60415
       O    19.49437   -9.24049  -12.03696
      H1    18.81915   -9.90480  -11.79035
       H    11.42095   -7.67175  -13.88980
       O    11.09100   -6.85169  -14.32770
      H1    10.29603   -6.56936  -13.84121
       H    14.47422   -7.43519  -10.88812
       O    13.57105   -7.34827  -11.30328
      H1    12.91982   -7.01504  -10.58191
       H    13.99363   -8.78340  -16.50925
       O    14.78691   -8.68858  -16.09410
      H1    15.16337   -7.79446  -16.23387
       H    16.39558   -6.03404  -15.39685
       O    16.41814   -6.42142  -16.28530
      H1    17.34151   -6.74716  -16.23053
       H    14.89447   -0.61382  -13.41683
       O    14.20970   -0.35278  -12.77267
      H1    14.40033    0.58002  -12.49489
       H    13.12173   -3.83781  -17.26965
       O    13.70470   -4.55109  -16.94898
      H1    13.57312   -4.58166  -15.99667
       H    15.21414   -3.42748  -10.74813
       O    15.00713   -3.29946   -9.80370
      H1    14.41390   -2.53518   -9.86406
       H    17.09068  -11.48050  -12.17620
       O    16.93369  -10.52491  -11.96175
      H1    16.19263  -10.38202  -12.58815
       H    19.43892   -6.54269  -16.07567
       O    19.03502   -7.39653  -16.23964
      H1    19.45269   -7.85514  -17.02123

