102
frame 7 | Written by MDAnalysis XYZWriter (release 2.4.3)
       H   -11.39307   16.31427   -2.46512
       O   -11.77844   16.39791   -1.56582
      H1   -11.15829   16.11641   -0.88201
       H   -13.01937   15.47161   -2.23979
       O   -13.79292   14.99427   -2.62643
      H1   -14.46090   15.72124   -2.62434
       H    -4.08391    9.48425   -3.29966
       O    -3.77052   10.09713   -2.63047
      H1    -4.37152   10.04602   -1.88250
       H    -7.50720   11.62280   -4.03332
       O    -7.23469   12.55795   -4.17308
      H1    -7.04745   12.62012   -5.12346
       H    -8.51814   10.27293    0.76448
       O    -8.14382   11.18791    0.87095
      H1    -8.43215   11.82153    0.14324
       H   -10.38542   15.13613   -4.07842
       O   -10.59022   16.05711   -4.15758
      H1    -9.78342   16.47824   -3.93010
       H    -7.61143    8.20395    1.34784
       O    -8.22227    8.09517    0.56372
      H1    -7.65086    7.89461   -0.17308
       H    -8.37743   12.28118    3.34731
       O    -8.02763   11.46788    3.64175
      H1    -8.04300   10.97257    2.81550
       H   -12.24557   12.61052    1.05949
       O   -12.95439   12.41618    1.73030
      H1   -13.49616   11.71390    1.33275
       H   -10.11431   15.51832    3.69382
       O   -10.70049   16.20760    3.99020
      H1   -11.38924   15.78079    4.52545
       H    -4.38898    9.09195    1.09793
       O    -4.43777    9.34201    1.99506
      H1    -4.75120   10.25975    1.88479
       H    -7.51588   17.59715   -6.20032
       O    -7.71803   16.64385   -6.01744
      H1    -7.02430   16.09125   -6.41212
       H    -7.23862   16.32580   -1.76242
       O    -6.76413   16.07405   -0.94933
      H1    -6.41115   15.16597   -1.20643
       H    -3.15642   16.08283   -5.53009
       O    -3.90589   16.69009   -5.49958
      H1    -4.44427   16.54885   -4.71484
       H    -4.28603   11.77354   -3.01795
       O    -4.61094   12.69033   -3.05062
      H1    -5.56450   12.56758   -3.40709
       H    -7.57112   13.50894   -1.11955
       O    -8.52857   13.37049   -1.16632
      H1    -8.81619   13.20194   -2.10448
       H   -11.87413   11.42739   -3.31286
       O   -12.35860   12.15673   -3.75777
      H1   -13.01603   12.42780   -3.14040
       H    -7.69805   16.96918   -4.15903
       O    -7.94309   17.24856   -3.26387
      H1    -7.48954   18.07500   -3.15008
       H    -4.84909   14.08349    1.99752
       O    -4.17460   14.67897    1.63723
      H1    -4.41619   15.55795    1.92078
       H    -4.80750   11.76824    3.38177
       O    -5.33041   11.96731    2.61162
      H1    -6.25604   11.98761    2.92250
       H    -6.61230   10.56754   -0.31563
       O    -5.79404   10.71863   -0.71934
      H1    -5.59617   11.63062   -0.58100
       H    -9.85163   13.18812    3.72178
       O    -9.38315   13.85341    3.22324
      H1    -9.96082   14.00895    2.50924
       H    -5.03490   13.33446   -1.50733
       O    -5.50989   13.62682   -0.64360
      H1    -4.90339   13.94212    0.00795
       H    -6.48686   16.88705    2.04483
       O    -5.57425   16.99611    2.38605
      H1    -5.34207   17.75220    1.88575
       H    -3.67478   16.80646   -2.79946
       O    -4.57704   17.08713   -2.65998
      H1    -4.86225   16.63187   -1.85761
       H    -6.12908   12.32414   -7.18228
       O    -6.65604   12.95766   -6.72711
      H1    -7.54776   13.01003   -7.12443
       H   -11.10476   13.60787   -0.86287
       O   -11.63473   12.81750   -0.74536
      H1   -12.50175   13.11235   -1.02710
       H    -7.50394   16.63237    0.56208
       O    -7.95404   16.96336    1.39326
      H1    -8.40139   17.83021    1.21715
       H    -2.73373   13.49601   -3.85306
       O    -2.10227   14.02388   -4.43548
      H1    -1.58251   14.50295   -3.81254
       H    -7.84366    7.44670   -2.22302
       O    -7.12911    8.00466   -1.85912
      H1    -6.42925    7.30271   -1.91516
       H   -10.13656    9.52939   -2.86600
       O   -11.14228    9.58243   -2.88416
      H1   -11.36646    9.35723   -1.94378
       H    -7.80586    9.52710   -2.86484
       O    -8.33501   10.00019   -3.49101
      H1    -8.13760    9.60107   -4.31929
       H   -10.58339   12.91349   -3.77599
       O    -9.82187   13.53700   -3.86252
      H1    -9.04773   13.01392   -4.24363
       H    -9.09258   14.76157   -0.14832
       O    -9.79843   15.30950    0.25818
      H1    -9.25180   15.86845    0.77273

