102
frame 0 | Written by MDAnalysis XYZWriter (release 2.4.3)
       H    18.40386  -10.88826   15.01925
       O    18.49601  -11.27390   15.88154
      H1    17.76187  -11.91948   15.88235
       H     8.58106   -3.23862   16.69623
       O     8.66635   -2.79499   17.55066
      H1     8.80089   -3.58616   18.11655
       H    12.25001  -13.94326   15.34204
       O    11.32085  -14.03798   15.69509
      H1    10.72259  -14.09668   14.93310
       H    13.12877  -11.79985   14.77905
       O    13.00695  -11.13991   14.09248
      H1    12.46353  -11.56154   13.42129
       H    13.34459  -12.85803   17.58961
       O    13.28301  -12.21651   16.88213
      H1    13.96762  -11.52262   16.98024
       H    10.56683   -8.55901   16.78380
       O     9.97085   -8.25082   16.10818
      H1     9.13412   -7.89294   16.48041
       H    12.89280   -7.31846   15.12694
       O    12.26803   -6.58838   15.19137
      H1    11.55742   -6.99712   15.62155
       H    12.07830   -4.70334   13.88097
       O    11.92981   -3.74872   13.97943
      H1    12.08349   -3.31523   13.11285
       H    12.28465  -10.14543   17.29661
       O    11.60976   -9.54734   17.60231
      H1    10.90263  -10.24020   17.73442
       H    12.65832   -9.45144   19.07889
       O    13.29423   -9.24982   19.77018
      H1    13.62699   -8.33531   19.64276
       H     9.98285  -12.39794   18.72363
       O    10.11044  -12.07851   17.81647
      H1    10.31612  -12.76917   17.18664
       H    14.25033   -9.00176   15.69169
       O    13.92619   -8.74266   14.83189
      H1    13.53241   -9.58217   14.51729
       H     6.88289  -12.15393   18.55172
       O     7.00657  -11.79279   17.68918
      H1     7.93109  -11.95772   17.56754
       H     9.13873   -8.91337   13.20091
       O     8.80302   -8.38713   12.46092
      H1     9.55779   -7.98069   12.06920
       H     9.67231   -5.97361   17.64054
       O    10.48283   -5.40995   17.49516
      H1    10.20022   -4.97596   16.72273
       H    14.71152  -14.37419   15.12952
       O    14.01863  -14.10644   14.55292
      H1    14.44920  -13.86352   13.70222
       H    17.46776   -9.00760   19.07524
       O    17.33083   -9.73895   18.47733
      H1    18.04715  -10.37503   18.63305
       H    15.60843   -9.74849   17.53544
       O    14.63204   -9.76869   17.37912
      H1    14.36805   -9.68086   18.32248
       H    10.98155  -17.09722   16.97813
       O    11.17857  -16.84800   16.05284
      H1    11.10346  -15.90333   16.05812
       H     6.27634   -9.45078   19.83268
       O     6.29897   -9.51249   18.82317
      H1     6.76807  -10.29194   18.49532
       H    14.63988   -7.56152   13.57645
       O    15.14508   -7.50443   12.70445
      H1    15.53050   -6.59743   12.69344
       H    14.53366  -14.31609   19.48299
       O    13.70669  -14.16557   18.92734
      H1    12.98420  -14.53931   19.44260
       H    12.29253   -5.20453   17.65970
       O    13.04699   -4.60779   17.64415
      H1    13.04212   -4.09707   16.84352
       H    19.63913   -9.13367   16.40927
       O    19.15817   -8.51468   16.95816
      H1    18.48956   -9.14296   17.38413
       H    16.26803   -4.59964   17.78962
       O    15.61282   -4.41257   18.49361
      H1    14.72890   -4.66811   18.15285
       H     9.69376   -9.74992   15.13015
       O     9.41149  -10.38515   14.48287
      H1    10.12098  -11.00288   14.34381
       H    17.75223   -5.41983   15.96573
       O    17.63447   -4.55251   16.42026
      H1    18.50854   -4.14220   16.31645
       H     7.63630  -10.95423   14.16678
       O     6.79351  -11.09430   13.70684
      H1     6.12550  -11.03808   14.43875
       H    18.71905   -6.48108   14.62827
       O    18.02629   -6.83868   15.20371
      H1    18.41008   -7.33453   15.91573
       H    12.70391   -1.88757   20.16586
       O    13.18210   -1.71235   19.34319
      H1    13.46577   -2.59964   19.08183
       H    15.30139  -10.32546   10.94967
       O    15.82526  -10.32098   11.76599
      H1    15.41895   -9.71631   12.33501
       H     6.93960   -6.79444   16.94224
       O     7.74973   -7.08811   17.38432
      H1     7.41287   -7.73408   18.03378
       H    18.57469   -5.71769   20.11114
       O    19.06256   -5.38873   19.32381
      H1    19.07826   -4.40552   19.29691
       H    14.09166  -16.65380   16.80882
       O    14.59891  -16.17798   17.46481
      H1    14.07239  -15.49574   17.91717

