102
frame 9 | Written by MDAnalysis XYZWriter (release 2.4.3)
       H   -18.23847    1.06519   -5.45276
       O   -17.59456    1.78052   -5.70973
      H1   -17.04708    1.46344   -6.46556
       H   -19.45132    3.59971   -7.29562
       O   -19.32415    3.83066   -6.37238
      H1   -18.63166    3.21844   -6.17780
       H   -12.25827    6.57246   -4.45001
       O   -11.37119    6.83153   -4.10209
      H1   -11.53994    6.85741   -3.10791
       H   -17.17060   -0.18091  -10.22340
       O   -16.23899   -0.29118  -10.48962
      H1   -15.70944    0.23558   -9.90501
       H   -13.04945    1.79092   -5.87832
       O   -12.16106    2.19618   -5.77956
      H1   -11.55582    1.58992   -6.07410
       H   -10.15449    5.13008   -6.59705
       O   -10.05015    5.33392   -7.52761
      H1    -9.55469    4.62973   -7.98947
       H   -10.33674    4.08172   -4.40559
       O    -9.71822    4.65298   -4.90754
      H1   -10.00009    5.53485   -4.69662
       H   -15.24773    5.13617   -2.44342
       O   -14.33612    5.22907   -2.06897
      H1   -14.16691    6.16660   -2.02958
       H   -14.27630   -3.44650   -4.78205
       O   -15.06322   -3.84680   -5.19567
      H1   -15.44304   -4.19545   -4.38125
       H   -15.90388   -2.80904   -6.41146
       O   -16.10098   -2.37029   -7.22793
      H1   -15.73674   -1.44522   -7.09887
       H   -13.45123    1.59985   -9.32208
       O   -12.89412    1.22917   -8.57517
      H1   -12.03110    1.04533   -9.01187
       H   -15.87760    2.14717   -4.74449
       O   -14.91833    2.19593   -4.58456
      H1   -14.61394    2.87263   -5.16347
       H   -19.44814   -2.51659   -7.09421
       O   -18.85557   -2.30432   -6.31172
      H1   -17.92773   -2.23729   -6.70332
       H   -14.79917    6.56787   -7.24753
       O   -14.83833    6.10465   -8.07614
      H1   -13.90591    6.00494   -8.34713
       H   -13.49251    3.11035   -7.38451
       O   -14.32496    3.45188   -7.07627
      H1   -14.46519    4.37958   -7.30135
       H   -13.46531   -0.13812   -3.16330
       O   -14.38073   -0.14141   -3.39287
      H1   -14.59090    0.79888   -3.41244
       H   -15.58511    3.79090    0.75456
       O   -15.70079    4.69987    0.45506
      H1   -15.16932    4.79010   -0.34707
       H   -15.34669    2.14566   -7.77856
       O   -15.97856    1.46806   -7.97401
      H1   -15.73596    0.76679   -7.32538
       H   -19.00946    2.10463   -8.80814
       O   -19.02740    3.06399   -8.99928
      H1   -19.84836    3.33381   -9.43007
       H   -10.30926    1.47562   -1.61599
       O   -10.30755    1.70122   -2.54190
      H1   -10.99123    2.42802   -2.55300
       H   -17.68332    5.31832   -2.36871
       O   -17.08694    4.82479   -2.94478
      H1   -17.23337    5.10308   -3.87364
       H   -13.75010   -0.10843   -6.46226
       O   -14.66216   -0.19288   -6.23981
      H1   -14.61271   -0.10442   -5.28589
       H   -10.31242    0.00522   -4.20296
       O    -9.52042   -0.09075   -4.81453
      H1    -9.46994   -1.06417   -4.97984
       H   -10.97118    3.64884    0.68166
       O   -10.70830    3.39177   -0.21179
      H1   -10.78321    4.16798   -0.74784
       H   -18.54704   -3.17849   -2.81238
       O   -19.18858   -2.50880   -2.64858
      H1   -18.64392   -1.70213   -2.61750
       H   -12.31307    0.73341   -0.49912
       O   -12.80324    1.55137   -0.35792
      H1   -12.20121    2.27797   -0.45989
       H   -12.62772    2.84623   -3.65580
       O   -12.35130    3.49853   -3.01470
      H1   -13.11038    4.07800   -2.72119
       H   -16.34913   -0.90353   -2.00321
       O   -17.21614   -0.58837   -1.63742
      H1   -17.06387    0.34385   -1.45228
       H   -17.80429    6.82915   -5.87974
       O   -18.00201    5.96998   -5.45477
      H1   -18.43103    5.46594   -6.14133
       H   -11.11873    0.17484   -2.48709
       O   -11.66083   -0.56556   -2.87377
      H1   -11.84104   -1.09981   -2.09491
       H   -14.00446    2.16644    0.74033
       O   -14.53022    2.40856    1.50131
      H1   -15.06754    1.61541    1.59054
       H   -18.86933    3.26067   -0.96714
       O   -19.33714    3.85601   -0.28287
      H1   -18.66430    3.92491    0.44775
       H   -17.85189    2.87131   -2.97924
       O   -18.31906    2.26139   -2.39531
      H1   -18.72956    1.59095   -2.93097
       H   -13.13016    7.75856   -5.91275
       O   -13.81878    7.13675   -5.68095
      H1   -14.16846    7.47277   -4.85951

