102
frame 7 | Written by MDAnalysis XYZWriter (release 2.4.3)
       H    -7.64159   -8.36252  -17.64333
       O    -7.91671   -9.29721  -17.66568
      H1    -7.86862   -9.64629  -18.52516
       H   -14.16480  -13.59362  -17.02864
       O   -13.96654  -13.14894  -17.88487
      H1   -14.63557  -12.46797  -17.84254
       H    -9.64482   -4.86603  -16.54749
       O    -9.93049   -5.74913  -16.78262
      H1   -10.32435   -5.59182  -17.63028
       H   -16.04639   -5.84453  -14.86169
       O   -16.61472   -6.63338  -14.88544
      H1   -17.35669   -6.31756  -14.34861
       H   -10.88179  -10.73597  -13.32572
       O   -11.50299  -10.95496  -14.03362
      H1   -11.11487  -11.72788  -14.40751
       H   -16.97172   -2.89036  -13.50191
       O   -16.01040   -2.83166  -13.61233
      H1   -15.73461   -3.78972  -13.48196
       H   -11.93256   -4.61248  -11.62988
       O   -12.43789   -4.87009  -10.82805
      H1   -12.76168   -4.03726  -10.49025
       H   -12.65584   -9.67347  -13.74168
       O   -13.24955   -8.93742  -13.43252
      H1   -14.13313   -9.18883  -13.73078
       H    -7.94184   -9.43647  -15.89182
       O    -7.92820   -9.40352  -14.89570
      H1    -8.12479   -8.49444  -14.63428
       H   -14.38330  -11.09658  -15.77908
       O   -15.16173  -11.24669  -15.19690
      H1   -15.91243  -10.83089  -15.57507
       H   -17.48382   -7.14165  -16.56225
       O   -18.18163   -7.26034  -17.23615
      H1   -17.93542   -7.97214  -17.85253
       H   -10.68242   -9.61982  -19.22884
       O   -10.35353   -8.70206  -19.45474
      H1    -9.45406   -8.62942  -18.94106
       H   -15.69990  -10.75617  -18.93091
       O   -14.97834  -10.10946  -19.18036
      H1   -14.94954   -9.36468  -18.59528
       H   -14.96571  -12.95746  -15.00948
       O   -14.83341  -13.90644  -15.14275
      H1   -14.04770  -14.04503  -14.60273
       H   -13.28805   -2.76888  -13.97754
       O   -12.41729   -2.36251  -13.89648
      H1   -12.49042   -1.40455  -13.96625
       H   -12.35747   -8.73827  -16.61147
       O   -12.36756   -7.70356  -16.58474
      H1   -11.61928   -7.47481  -17.13572
       H   -11.54065   -8.66198  -11.09716
       O   -10.87853   -8.08632  -11.41061
      H1   -11.17164   -7.79486  -12.28271
       H   -12.47267  -10.85623  -19.55820
       O   -11.71215  -10.95301  -18.99385
      H1   -11.25841  -11.78046  -19.15909
       H   -15.99901   -8.02209  -14.01862
       O   -16.10549   -8.80933  -13.50303
      H1   -16.75270   -9.16612  -14.04157
       H    -9.01351  -10.74615  -12.06408
       O    -9.94977  -10.60441  -11.89801
      H1    -9.98838   -9.63991  -11.76562
       H   -11.45627   -3.64596  -13.25255
       O   -10.80715   -4.31689  -13.08634
      H1   -11.04616   -5.08048  -13.61515
       H   -15.55676   -3.12458  -17.77466
       O   -15.13441   -3.99000  -18.04481
      H1   -14.89305   -3.75082  -18.90387
       H    -9.75951   -2.32413  -16.26673
       O    -9.28906   -2.95596  -15.76343
      H1    -9.72264   -3.01337  -14.92553
       H    -6.36143   -6.86205  -17.00152
       O    -7.24581   -7.00932  -16.73369
      H1    -7.77769   -6.30361  -17.07485
       H   -15.11411   -6.09351  -17.47290
       O   -14.99204   -7.03581  -17.41514
      H1   -14.06477   -7.24734  -17.17858
       H   -12.25164   -7.47967  -13.66809
       O   -11.64832   -6.78388  -14.00911
      H1   -11.64241   -6.98924  -14.95970
       H   -15.07629   -7.28477  -10.70764
       O   -15.79037   -6.97257  -11.25276
      H1   -15.76286   -7.58283  -12.06493
       H   -13.55998   -4.14826  -17.11386
       O   -12.65554   -3.79637  -16.97305
      H1   -12.34643   -4.28580  -16.23880
       H   -11.56220   -1.23032  -17.75965
       O   -11.54242   -1.55672  -16.85089
      H1   -12.16655   -2.28329  -16.87181
       H   -18.24299  -10.29708  -14.96245
       O   -17.54804   -9.90570  -15.56086
      H1   -18.03337   -9.31070  -16.12213
       H    -6.62584   -4.45625  -15.19716
       O    -6.80999   -5.24001  -14.64214
      H1    -6.90870   -5.94429  -15.30408
       H    -7.41355  -12.26624  -17.68418
       O    -8.19030  -12.02536  -17.14638
      H1    -8.23097  -11.09811  -17.28501
       H   -12.12647  -10.60475  -17.13993
       O   -12.70048  -10.35675  -16.34044
      H1   -12.12093  -10.49715  -15.57920
       H   -13.79975   -5.84905  -13.57979
       O   -14.59922   -5.36055  -13.43564
      H1   -14.72884   -5.52706  -12.49052

