102
frame 4 | Written by MDAnalysis XYZWriter (release 2.4.3)
       H   -10.38763    6.71893   13.73623
       O   -10.83316    6.81241   14.61350
      H1   -11.52519    7.44587   14.51311
       H   -14.96333   12.79667   11.74856
       O   -15.74315   12.26322   11.93917
      H1   -16.32044   12.40520   11.15802
       H    -7.23431   11.00942   14.49633
       O    -7.67279   11.66876   15.07478
      H1    -7.02185   12.22309   15.53734
       H    -8.70511   15.38885   14.13181
       O    -8.14335   14.70673   13.69572
      H1    -8.78317   14.13030   13.30691
       H   -14.39944    9.68990    6.78679
       O   -14.04716   10.33359    7.43172
      H1   -13.35724    9.89903    7.91022
       H   -11.63067    9.11049    9.72552
       O   -11.80156    8.70208    8.88624
      H1   -12.18886    7.82897    9.10475
       H   -15.11120   12.21214   16.30931
       O   -15.16021   12.09339   15.32022
      H1   -14.86184   12.93286   14.91196
       H   -13.76976   14.46014   16.39970
       O   -13.94507   14.83491   15.55555
      H1   -14.26156   15.74792   15.54122
       H    -6.56383   17.73564   11.44049
       O    -7.23488   17.13399   11.73848
      H1    -6.77965   16.26361   11.61960
       H   -10.54633   16.96109   10.65985
       O    -9.74057   17.31053   10.24001
      H1    -9.10593   17.17250   10.97795
       H   -14.90208   16.30752    9.08919
       O   -14.15705   16.72922    9.60419
      H1   -13.85749   16.05648   10.22859
       H    -5.85544    9.28203   10.60685
       O    -6.32177   10.02394   10.91079
      H1    -6.39289   10.01868   11.87899
       H    -6.46996   14.79667   12.78397
       O    -5.81337   14.81999   12.11336
      H1    -5.81266   14.00493   11.55029
       H   -11.74328   10.72171   15.79198
       O   -12.47672   11.02585   16.27338
      H1   -13.11800   10.31904   16.12889
       H   -15.18305   10.59961   14.29396
       O   -14.95038    9.88685   13.67321
      H1   -15.76095    9.39368   13.84703
       H   -11.76374   13.51120   13.90524
       O   -12.12530   14.37410   13.66477
      H1   -12.63614   14.53567   14.48531
       H   -13.52051    8.81682   14.45782
       O   -12.92064    8.30132   15.06259
      H1   -13.43998    7.81493   15.76314
       H   -14.03935   10.73589   11.60753
       O   -13.64376   10.47737   10.75592
      H1   -14.18568   10.91664   10.11761
       H   -11.55645   15.81177   12.58000
       O   -11.56919   16.73238   12.24422
      H1   -11.72281   17.37653   13.01909
       H   -10.55735   15.63215   14.74465
       O    -9.91405   16.04753   15.29419
      H1    -9.77367   15.41228   16.01774
       H   -10.01286   11.73250   11.37755
       O   -10.40954   12.35919   11.99233
      H1   -10.92328   12.79071   11.34654
       H   -12.54898   12.49516   16.99440
       O   -12.69700   13.35277   17.46319
      H1   -11.80474   13.78324   17.38070
       H    -9.12186    8.78171   16.00529
       O    -8.77460    7.88901   15.94936
      H1    -9.37044    7.41389   15.29552
       H   -10.65893   15.81452    7.79573
       O    -9.99048   15.08283    7.92208
      H1    -9.47105   14.99722    7.15970
       H    -8.87420   10.88369   15.96219
       O    -9.60190   10.44418   16.45919
      H1    -9.60230   10.71728   17.36611
       H    -6.76516   15.20434   14.84655
       O    -6.28410   15.37155   15.69095
      H1    -5.37125   15.57433   15.45535
       H    -6.41524    9.16161   14.04087
       O    -6.35776   10.04863   13.62602
      H1    -5.43454   10.38864   13.73430
       H   -13.02092   13.97119   10.76244
       O   -13.67654   14.42555   11.31617
      H1   -13.31724   14.54467   12.19287
       H   -11.56921   10.17828   11.79776
       O   -11.04605    9.36545   11.76163
      H1   -10.20761    9.70070   11.42982
       H    -5.48317   12.85446    9.65240
       O    -5.38821   12.64927   10.56732
      H1    -5.69047   11.71018   10.55639
       H    -7.30169   16.15121    9.55907
       O    -7.34345   15.36379    9.04608
      H1    -8.28067   15.32918    8.75366
       H    -9.94231   12.51681    8.27182
       O    -9.73279   12.05779    7.43894
      H1   -10.17978   11.19278    7.41310
       H    -8.21321   10.45589   10.43452
       O    -9.03690   10.84140   10.01030
      H1    -8.74556   11.16689    9.16713
       H   -12.38290   13.35011    8.68027
       O   -11.99405   13.44856    9.58277
      H1   -11.57306   14.30594    9.53857

