102
frame 0 | Written by MDAnalysis XYZWriter (release 2.4.3)
       H    10.69073   11.35837  -13.49230
       O    10.88361   12.09306  -14.03018
      H1    11.80878   12.37546  -13.65297
       H    12.05520   17.46901  -15.40269
       O    12.14002   16.56281  -15.80594
      H1    11.28969   16.14033  -15.52860
       H    14.90746   14.38283  -15.52256
       O    15.06611   14.54956  -14.59803
      H1    14.47438   13.87724  -14.19261
       H    18.20548   15.96221  -12.83730
       O    17.89586   15.67434  -11.94583
      H1    17.55560   14.73374  -12.04665
       H    14.25591   10.99958  -10.69787
       O    14.28701   11.91301  -11.02368
      H1    13.65238   12.39969  -10.50580
       H    16.09328   12.53208  -11.36247
       O    16.99538   12.87510  -11.42597
      H1    17.38076   12.91929  -10.54958
       H    18.21250   16.60914  -16.27725
       O    18.04708   17.12821  -17.10769
      H1    17.34395   16.81643  -17.66408
       H    18.29041   15.65989  -19.31799
       O    18.12125   14.76842  -19.05664
      H1    18.73843   14.45385  -18.42100
       H    12.81408    9.85410  -16.53739
       O    13.02749    8.99617  -16.91662
      H1    12.15052    8.70649  -17.25328
       H    16.83980   13.84476  -15.07907
       O    17.83095   13.68312  -15.03724
      H1    18.03352   13.15876  -14.29580
       H    16.89425    8.03470  -16.65323
       O    17.70002    8.23635  -17.06487
      H1    18.17193    7.35883  -17.06381
       H     8.18353   10.57089  -16.82892
       O     8.93289   10.27070  -16.29200
      H1     9.72084   10.72560  -16.61605
       H    16.97869   11.39754  -17.40933
       O    16.02556   11.42289  -17.62584
      H1    15.67457   12.35012  -17.61301
       H    14.59985   10.09339  -15.32984
       O    15.07111   10.86871  -15.04444
      H1    15.44460   11.20442  -15.94629
       H    18.63094    9.20618  -18.92561
       O    19.26616    9.61836  -19.47894
      H1    19.77739   10.13160  -18.86215
       H    14.13304   18.11029  -19.47849
       O    15.03278   17.65910  -19.32504
      H1    15.01581   17.57864  -18.33034
       H    14.31647    6.73760  -19.66161
       O    13.43765    6.67396  -19.27133
      H1    12.87397    6.02299  -19.79737
       H    14.15311   11.78602  -14.01724
       O    13.66491   12.47669  -13.54924
      H1    13.76561   12.21619  -12.67496
       H    10.13510   13.64146  -18.79340
       O    10.06520   13.34998  -17.84637
      H1    10.06619   14.10484  -17.26056
       H    11.88979   17.37983  -17.28371
       O    11.63863   17.88297  -18.11076
      H1    11.53000   18.79718  -17.75352
       H    14.65241   16.88208  -12.67362
       O    13.89503   16.36307  -13.10990
      H1    14.42360   15.75387  -13.64012
       H    18.16113   18.60329  -16.39903
       O    18.29533   19.48824  -15.96994
      H1    19.18274   19.40399  -15.53953
       H    13.11731    7.87079  -11.95547
       O    13.54217    8.72444  -12.11740
      H1    14.39797    8.54740  -12.58703
       H    16.80875    6.51052  -14.82363
       O    17.02515    5.61312  -14.57789
      H1    16.42215    4.94115  -14.87679
       H    12.79304   11.37120  -18.02382
       O    12.79044   11.24717  -19.01315
      H1    13.62429   10.75523  -19.18520
       H    19.86916   16.11898  -14.34010
       O    18.88160   16.03514  -14.37686
      H1    18.76039   15.07699  -14.58113
       H    15.20160    6.26567  -16.97917
       O    15.07906    7.04126  -16.43992
      H1    14.45699    7.58312  -16.93656
       H    19.38360   11.07934  -12.41157
       O    18.49644   11.04649  -12.87660
      H1    17.95250   11.61701  -12.35322
       H    10.72091    8.31207  -18.92574
       O    11.01361    7.77695  -18.18122
      H1    11.82393    7.27953  -18.47457
       H    15.15872   18.21401  -15.71723
       O    14.72323   17.86240  -16.49299
      H1    14.06565   17.28312  -16.10014
       H    11.30495   12.26476  -17.24389
       O    11.72936   11.71141  -16.60464
      H1    11.29958   11.95190  -15.73781
       H    18.43339    8.70798  -15.43497
       O    18.87363    8.46417  -14.56309
      H1    18.60474    9.13442  -13.97042
       H    16.54801    9.18931  -12.53848
       O    15.89349    9.07191  -13.25944
      H1    15.89861    9.78728  -13.92311
       H    14.69238   14.37639  -17.84823
       O    15.54753   14.09186  -17.48684
      H1    16.12453   14.41408  -18.16212

