102
frame 10 | Written by MDAnalysis XYZWriter (release 2.4.3)
       H    -8.88433   -2.23187    2.01079
       O    -8.05553   -1.77625    1.95715
      H1    -8.16086   -0.92820    2.38770
       H    -9.50012    4.15402    5.25881
       O    -9.07652    4.36223    4.37723
      H1    -8.30300    3.79086    4.19718
       H   -10.96043    3.00793    6.89939
       O   -10.00696    2.92011    6.71837
      H1    -9.48839    3.25678    7.41748
       H   -13.26678   -2.80190   -1.00010
       O   -12.55429   -2.21482   -0.92557
      H1   -11.99091   -2.50188   -0.12713
       H    -6.77040    4.78818    1.83696
       O    -6.78144    4.71108    0.88460
      H1    -7.64709    4.31566    0.64061
       H   -10.64763    0.59738    2.93122
       O   -10.55564    1.33327    2.29725
      H1   -10.74532    0.86110    1.47088
       H   -13.61356   -1.68090    1.85143
       O   -13.51175   -2.61439    1.75788
      H1   -13.82625   -2.89107    2.58899
       H    -8.31574    6.47379    4.10841
       O    -8.07273    7.23297    3.64313
      H1    -7.85464    6.73870    2.87043
       H   -11.46218   -1.15688    4.17936
       O   -10.64751   -0.84627    3.76214
      H1   -10.17457   -0.48505    4.54925
       H   -14.42573   -1.87108    5.25305
       O   -14.15862   -0.93542    5.35830
      H1   -15.01368   -0.47744    5.14363
       H   -10.66149   -3.04698    6.75802
       O   -11.55693   -2.78215    6.46907
      H1   -11.73453   -3.31561    5.68779
       H    -5.27989    2.11893    2.19323
       O    -5.40841    1.92914    3.11207
      H1    -6.22763    1.33733    3.14124
       H    -5.03464   -2.02786    4.00766
       O    -5.41444   -2.58106    3.29307
      H1    -6.28530   -2.21525    3.08194
       H    -6.04843    0.81145    5.70742
       O    -6.77529    1.26920    6.19066
      H1    -6.49596    2.15388    6.09519
       H   -14.98598    3.24555    1.06573
       O   -15.08815    4.19881    0.85862
      H1   -14.80652    4.31361   -0.06526
       H   -12.97688    4.87871    2.96316
       O   -13.62477    5.55354    2.79232
      H1   -13.99103    5.15655    2.02498
       H    -9.76737    1.07720    6.30522
       O    -9.86713    0.09640    6.29603
      H1   -10.59634   -0.16059    6.91566
       H   -12.08216   -0.46631    8.11585
       O   -12.66947    0.17396    7.77721
      H1   -12.98452   -0.27570    6.98215
       H    -5.36402   -0.28329   -1.19387
       O    -5.51235   -1.18684   -0.99229
      H1    -6.50023   -1.32736   -1.01991
       H   -10.10081    1.24260   -2.28908
       O   -10.74599    1.46188   -3.00698
      H1   -11.34497    2.16332   -2.71539
       H    -8.21825    0.67866    4.51569
       O    -8.10653    0.57535    3.51803
      H1    -8.86094    1.03518    3.10961
       H   -11.45813    3.39972    0.78909
       O   -11.47880    3.15443   -0.09777
      H1   -11.39093    3.99349   -0.61957
       H   -10.59864   -3.62922    1.23800
       O   -10.73313   -2.68589    1.11200
      H1   -11.39408   -2.48650    1.79954
       H    -7.99885   -2.90779   -1.30810
       O    -7.98252   -1.94662   -0.96856
      H1    -8.18198   -2.17816   -0.03325
       H   -12.55836    0.01489   -0.28676
       O   -12.85446    0.77705    0.19807
      H1   -12.45807    1.51268   -0.28055
       H   -13.62481    3.63825   -3.74472
       O   -12.78270    3.71382   -3.22759
      H1   -13.08927    4.09591   -2.39055
       H   -10.67675    4.04648    3.39793
       O   -11.35572    3.87601    2.72991
      H1   -11.51651    2.91414    2.81246
       H   -11.30196   -0.10224   -3.20149
       O   -11.68927   -0.99897   -3.21731
      H1   -11.78685   -1.32658   -2.33867
       H    -5.43347    3.75034    0.43127
       O    -4.76414    3.07056    0.42320
      H1    -3.90426    3.45657    0.62976
       H   -14.40594    1.07466    1.41551
       O   -15.08250    1.62025    1.85393
      H1   -15.91649    1.15262    1.73281
       H   -12.56407    6.77261    1.61551
       O   -11.84701    6.75409    0.93761
      H1   -11.07901    7.19102    1.35479
       H   -10.10723    5.76855   -1.39816
       O   -11.02506    5.66890   -1.38186
      H1   -11.22449    5.99526   -0.50868
       H    -9.53325    3.01595   -0.13531
       O    -8.59826    3.08938   -0.27970
      H1    -8.52683    3.23101   -1.22821
       H    -8.61305   -0.08788   -0.91174
       O    -9.27182    0.60964   -0.87665
      H1    -8.86005    1.43815   -0.66418

