102
frame 6 | Written by MDAnalysis XYZWriter (release 2.4.3)
       H     8.91317   18.92766   12.55791
       O     8.59219   18.07374   12.29121
      H1     8.04857   17.74547   12.99757
       H    13.61400   19.89183   11.48840
       O    13.70277   19.69550   12.42881
      H1    13.59766   18.75893   12.50020
       H    11.00840   19.02874   15.51393
       O    11.22587   18.30105   14.91219
      H1    12.12301   18.03593   15.13138
       H    11.37739   14.19200   18.15880
       O    10.49249   14.20068   18.46911
      H1    10.56038   14.06945   19.39054
       H    12.43752   13.90458   16.28265
       O    12.93631   14.25671   17.08867
      H1    13.30626   13.44745   17.49626
       H     7.85725   13.05221   17.62742
       O     8.29665   12.19542   17.47992
      H1     9.21684   12.49233   17.74398
       H    10.01747    8.90783   11.32306
       O    10.54618    9.72228   11.46550
      H1    10.58087   10.27332   10.64824
       H    11.78601   11.46133    9.10090
       O    10.92694   11.55373    9.49815
      H1    10.94901   12.42766   10.00112
       H    14.42574   16.99929    8.74221
       O    14.33524   16.85817    9.70742
      H1    15.21753   16.46191    9.80766
       H    14.33520    9.96467    9.52931
       O    14.91929    9.42310   10.15960
      H1    15.26110    8.67804    9.57613
       H    12.43436    8.09199   14.63426
       O    11.88969    7.99749   13.87534
      H1    11.04480    8.20287   14.26264
       H     6.46946   16.60778   14.19857
       O     7.24462   16.12096   14.60203
      H1     7.12042   15.18087   14.39294
       H    13.51011   10.21896   11.55476
       O    13.11915   10.28667   12.43713
      H1    12.22505    9.84332   12.31941
       H     9.97432   16.93461   12.36690
       O    10.64029   16.26503   11.91792
      H1    11.56642   16.44738   12.25857
       H    11.13907   17.32099   10.53838
       O    11.45863   18.02611    9.88775
      H1    10.61873   18.39593    9.56257
       H    16.63580   14.63375    9.06410
       O    16.67250   15.47471    9.53624
      H1    16.97714   15.16772   10.44886
       H    10.56766   14.08349   15.07708
       O    11.08845   13.26967   15.32349
      H1    11.76955   13.20071   14.61883
       H     9.17482   12.75330   15.05083
       O     8.44292   12.99235   14.53452
      H1     7.63647   12.65353   14.95438
       H    14.17909   11.27859   15.53902
       O    13.61417   10.47664   15.58050
      H1    13.45608   10.30581   14.65594
       H     6.04039   11.71416   10.95599
       O     6.71933   11.00501   10.94733
      H1     7.45115   11.40320   11.37392
       H    14.34531   11.81214    8.75973
       O    13.65308   11.17734    8.44778
      H1    14.19623   10.70982    7.82037
       H     8.75904   12.09510   13.10954
       O     8.93003   11.75924   12.17142
      H1     9.47396   10.98166   12.30789
       H    10.32975   11.44982    7.76860
       O     9.74445   11.56441    6.95752
      H1    10.27572   12.04596    6.34763
       H    15.63810   14.66990   13.18840
       O    14.88908   14.68707   13.82925
      H1    14.31766   13.92469   13.54193
       H    10.47218   14.50795   11.48724
       O    10.78427   13.62212   11.45427
      H1    10.04120   13.04702   11.61045
       H    17.87784   10.54779    9.71380
       O    17.31541   10.88117   10.49284
      H1    16.54689   10.35661   10.45706
       H    13.88496   16.08715   13.12370
       O    13.44238   16.78670   12.55165
      H1    13.72704   16.54306   11.67587
       H    13.78191   16.03475   15.80197
       O    13.72046   16.99508   15.75076
      H1    13.38363   17.28231   16.59625
       H    14.29493    8.50442   12.68481
       O    15.01648    7.84268   12.59869
      H1    15.39113    8.01300   11.72191
       H    16.12610   12.02610   14.83413
       O    15.57304   12.34255   15.54547
      H1    15.28123   13.20495   15.26400
       H    12.02554   13.28339   12.65259
       O    12.67785   12.84598   13.20627
      H1    12.59465   11.95230   12.91622
       H     9.05225   15.91048   14.65155
       O     9.95713   15.76895   14.89196
      H1    10.42005   16.44728   14.42579
       H    17.06192   16.01249   12.77850
       O    17.07075   15.13887   12.43393
      H1    17.67981   14.63544   13.03547
       H    14.77319    7.20729   15.70232
       O    14.06753    7.78707   15.99499
      H1    14.12634    8.62978   15.62784

