102
frame 9 | Written by MDAnalysis XYZWriter (release 2.4.3)
       H   -14.18597   14.84087    4.07719
       O   -14.17493   14.99530    5.00265
      H1   -14.90602   15.51147    5.34181
       H   -16.11538   13.16360    5.19493
       O   -16.61075   13.49534    4.44970
      H1   -16.04347   13.07018    3.76354
       H   -12.99147   17.37468   -0.56443
       O   -13.46842   18.02458    0.02694
      H1   -12.94396   18.83880   -0.07668
       H    -9.40559   18.85927    1.74296
       O   -10.04503   18.43685    1.12032
      H1   -10.74884   18.09328    1.70748
       H    -8.39650   16.00074    8.48758
       O    -8.59340   15.60593    7.60947
      H1    -8.92506   16.36023    7.11218
       H   -17.78547   14.53499    3.53351
       O   -18.50635   15.04778    3.15458
      H1   -19.31137   14.90699    3.66831
       H   -13.05819   16.51398    9.43410
       O   -13.87175   16.86762    9.70206
      H1   -13.82508   16.93518   10.65531
       H   -13.44030   18.26414    3.58198
       O   -14.16272   18.69067    4.14790
      H1   -14.10349   18.37526    5.04376
       H   -17.31022   17.15500    9.86597
       O   -18.11695   17.70529    9.99560
      H1   -18.88264   17.31889    9.45610
       H   -17.43634   18.49027    1.21132
       O   -17.26009   19.29436    1.64683
      H1   -18.02573   19.84275    1.70098
       H    -8.94378   17.69685    4.92269
       O    -8.80410   18.47162    5.59016
      H1    -7.95161   18.33912    6.02043
       H   -12.81347   17.48656    1.82644
       O   -12.27547   17.64677    2.62620
      H1   -11.82636   16.82513    2.88342
       H   -16.62184   17.85078    3.87968
       O   -17.45034   17.51287    4.29173
      H1   -17.74906   16.91798    3.56198
       H   -13.21488   14.82229   12.69222
       O   -14.03105   15.29302   12.73489
      H1   -14.41230   15.17826   13.65517
       H   -15.63064   16.80617    6.63623
       O   -16.16486   15.98963    6.49781
      H1   -16.50566   16.18164    5.59084
       H    -9.78667   15.40457    4.02151
       O    -9.95646   16.33032    4.24748
      H1   -10.55656   16.22223    4.99240
       H   -14.26281   17.07945   12.64922
       O   -14.41969   18.00879   12.36148
      H1   -13.90919   18.59197   12.93884
       H   -11.99251   14.80321    8.39551
       O   -11.45651   15.55454    8.27389
      H1   -10.60043   15.27628    7.84215
       H   -15.21813   16.91825    1.84126
       O   -14.68865   16.16224    2.10743
      H1   -14.90689   15.52781    1.42835
       H   -10.57760   13.52759    4.27589
       O    -9.89932   13.57849    3.49507
      H1   -10.44092   13.89419    2.77227
       H   -12.35463   13.25390    5.96225
       O   -11.49033   13.58324    5.69059
      H1   -10.92424   13.16967    6.42003
       H   -18.11343   13.60270    9.86538
       O   -17.68859   13.12111    9.13293
      H1   -18.15287   13.47663    8.34220
       H   -16.38504   18.48750   12.91191
       O   -17.28467   18.85184   12.91072
      H1   -17.35955   19.37850   12.10414
       H   -14.17246   17.99561    8.00925
       O   -14.12380   18.20095    7.03418
      H1   -13.44157   17.57053    6.69516
       H   -10.11217   18.96443   12.17263
       O   -10.55211   18.30121   12.77089
      H1   -11.44140   18.69531   12.88868
       H   -14.96093   13.78426   11.56637
       O   -15.07933   13.49029   10.70435
      H1   -15.55433   14.22913   10.20201
       H   -15.87680   19.58567    9.66868
       O   -15.20371   19.74827   10.35643
      H1   -15.06394   18.91091   10.80338
       H   -14.47805   13.34248    5.82585
       O   -14.81691   12.67569    6.42625
      H1   -14.90169   11.90514    5.81316
       H   -16.58168   14.98679    8.68974
       O   -16.36931   15.62501    9.38610
      H1   -15.44018   15.85869    9.28304
       H   -11.91429   16.43262    6.89985
       O   -12.25428   16.69322    5.96979
      H1   -12.71392   15.89462    5.69940
       H   -18.02846   15.26793    6.78818
       O   -18.88812   14.87441    7.06055
      H1   -19.45958   15.69633    7.06098
       H   -18.92489   16.64014   11.69149
       O   -19.18580   16.82683   12.61460
      H1   -18.82961   17.70737   12.87652
       H   -12.47062   12.15561    9.50887
       O   -11.99593   11.68134   10.16339
      H1   -12.18844   10.72766   10.03091
       H   -13.82392   13.77034    9.52292
       O   -13.31698   13.74665    8.70452
      H1   -13.87651   13.35804    8.08341

