102
frame 1 | Written by MDAnalysis XYZWriter (release 2.4.3)
       H    -5.75142   13.11015   15.81154
       O    -5.42778   13.80362   16.48960
      H1    -6.16882   14.37513   16.45599
       H    -6.86047   11.54020   14.47769
       O    -6.71152   12.50018   14.47858
      H1    -7.52859   12.93906   14.70871
       H    -9.59259   13.99568   15.36860
       O    -8.76279   14.34238   15.09128
      H1    -8.70375   15.24758   15.39978
       H   -10.97755   19.28009   18.37451
       O   -10.28529   18.65064   18.57521
      H1    -9.43227   19.07438   18.25936
       H    -9.75866   16.83536   17.34573
       O    -9.29076   16.55601   16.54033
      H1    -8.87657   17.24040   15.99614
       H    -7.31381   17.94128   10.83809
       O    -7.76097   17.05150   10.71367
      H1    -7.35197   16.34289   11.28781
       H     0.81998   19.27017   12.17780
       O     1.60022   19.19434   12.67683
      H1     1.95120   18.31738   12.68215
       H    -1.36706   16.37312   18.69306
       O    -1.28505   16.12809   19.61276
      H1    -1.84901   15.33240   19.62224
       H    -7.65215   16.39223   20.11247
       O    -6.69188   16.25314   20.03627
      H1    -6.52704   16.29616   19.08456
       H   -12.12412   17.53912   17.32225
       O   -12.64153   16.80348   17.18982
      H1   -13.52879   17.07487   17.15395
       H    -8.05597   14.73288   12.46747
       O    -7.24788   14.97180   12.03246
      H1    -7.00076   14.30282   11.37885
       H    -3.05326   13.02266   19.34199
       O    -2.09510   12.77608   19.30542
      H1    -1.92837   11.80495   19.30200
       H     2.40224   13.63895   18.00999
       O     2.08447   14.08917   17.19183
      H1     1.71994   14.90275   17.50143
       H     3.68528   17.38817   16.37708
       O     3.27469   18.17765   15.97592
      H1     2.62259   17.83394   15.34760
       H   -11.61727   13.52668   17.53819
       O   -11.92964   13.72289   18.44780
      H1   -11.14927   13.98921   18.95654
       H    -5.26777   16.88810   14.82189
       O    -5.38975   17.77348   15.20883
      H1    -5.19688   18.40004   14.51359
       H    -2.47479   17.24140   10.38826
       O    -1.83163   16.85567    9.76106
      H1    -2.36301   16.25001    9.31317
       H     0.68855   13.01965   17.22940
       O    -0.12344   12.48934   17.04325
      H1    -0.73736   12.58286   17.81846
       H     0.20229   16.59533   16.81095
       O     1.06200   16.53087   17.27850
      H1     1.41116   17.42031   17.28277
       H    -0.87666   13.56684   15.94448
       O    -1.45371   13.96325   15.31150
      H1    -1.44719   14.91489   15.35797
       H    -7.55686   16.33721   16.98865
       O    -6.66575   16.33576   17.32823
      H1    -6.11639   16.91519   16.81227
       H    -3.23675   16.85048   13.04125
       O    -2.56862   17.31748   12.50100
      H1    -1.80770   16.75721   12.55988
       H    -4.15387   20.22998   18.70904
       O    -4.79246   19.55646   18.46336
      H1    -4.60798   18.85454   19.08343
       H    -0.32852   13.27653   13.87857
       O     0.34537   12.81470   13.39610
      H1    -0.14326   12.56443   12.56968
       H    -6.21032   19.68700   12.10434
       O    -6.58077   19.56714   11.20270
      H1    -5.75684   19.74172   10.69432
       H    -5.45440   15.38039   13.73692
       O    -4.55103   15.47842   14.14985
      H1    -4.52450   14.73320   14.80537
       H    -9.13730   17.05665   12.04869
       O    -9.61700   16.85581   12.89880
      H1   -10.57494   17.05842   12.74462
       H    -3.85236   17.70193   16.65417
       O    -3.13968   17.29681   17.23274
      H1    -3.40802   17.76880   18.04499
       H    -2.53404   12.51143   15.64807
       O    -2.82031   11.62979   15.75259
      H1    -3.69480   11.69670   16.18584
       H    -8.75239   17.95210   13.97231
       O    -8.29631   18.46821   14.63419
      H1    -7.36291   18.38036   14.50793
       H    -1.84804   17.04090   16.22624
       O    -1.20459   16.94561   15.43465
      H1    -0.81411   17.80866   15.36952
       H     2.65535   15.35474   14.11380
       O     3.19064   15.06070   14.83603
      H1     2.69271   14.90931   15.65745
       H    -5.79312   10.71364   17.56440
       O    -5.12106   11.26763   17.24794
      H1    -5.46569   12.16685   17.19564
       H    -5.02244   14.16162   19.15172
       O    -4.73053   13.39373   19.60745
      H1    -5.53020   12.90529   19.85707

