102
frame 11 | Written by MDAnalysis XYZWriter (release 2.4.3)
       H   -15.31494   14.43437    3.89038
       O   -15.43864   14.69592    4.83637
      H1   -15.92728   15.54514    4.73896
       H   -17.18973   13.80660    4.82492
       O   -17.90933   13.43632    4.33394
      H1   -17.46844   12.75363    3.77110
       H   -17.13499    7.41757    8.99921
       O   -16.64614    7.75652    9.79434
      H1   -17.23713    7.47377   10.53042
       H   -13.51961   10.63280   11.70597
       O   -14.24877   10.25902   12.20138
      H1   -15.07657   10.65691   11.94005
       H   -19.51448   11.31444    9.67173
       O   -18.60266   11.24793    9.44004
      H1   -18.01707   11.51867   10.14864
       H   -13.60703    9.82937    7.35463
       O   -12.97127    9.10813    7.50963
      H1   -12.93707    9.03263    8.45511
       H   -12.22105    6.97899    9.47140
       O   -12.17538    6.49910    8.64919
      H1   -12.39278    7.00421    7.87546
       H   -15.10610    7.30225   10.93285
       O   -14.47649    7.64962   11.57386
      H1   -14.77867    8.48409   11.89593
       H   -15.66062   13.36729   15.03029
       O   -16.29879   13.93770   14.58478
      H1   -16.98501   14.04674   15.23487
       H   -15.93524   10.89925    9.31061
       O   -15.49414   10.15850    8.83603
      H1   -15.84156    9.32327    9.12468
       H   -10.95172    9.87028    7.65590
       O   -10.21210    9.92925    7.07087
      H1   -10.49710    9.90587    6.13131
       H   -16.74533   10.36847   14.56721
       O   -17.58180   10.83641   14.59340
      H1   -17.64723   11.25642   15.46565
       H   -14.50505   10.48453   15.17065
       O   -14.93619    9.61472   15.30788
      H1   -14.39708    9.06178   14.70319
       H   -12.51913    7.89150    6.09792
       O   -12.51017    7.21308    5.34435
      H1   -13.52400    7.04805    5.29162
       H   -16.27431   12.45138   11.78401
       O   -16.80790   11.61471   11.86072
      H1   -17.21895   11.76149   12.75146
       H   -12.43208   13.69270   12.33393
       O   -12.53759   14.35815   11.59708
      H1   -12.34803   13.96273   10.75344
       H   -18.04932    5.95998    5.90784
       O   -18.51429    6.59472    6.45895
      H1   -18.02504    7.42103    6.35263
       H   -16.39215    6.15040   13.21542
       O   -15.63965    5.77623   13.74373
      H1   -14.95350    6.45690   13.65193
       H   -12.58850   14.84371    8.71682
       O   -12.50333   15.69274    8.37553
      H1   -11.57890   15.83958    8.10338
       H   -18.07616   12.10083    5.56769
       O   -18.13682   11.25476    6.02148
      H1   -17.89861   11.48103    6.92396
       H   -11.15343   13.19188    6.41737
       O   -10.50516   13.79657    5.94535
      H1    -9.78556   13.47621    6.52999
       H   -18.81566   13.71600    8.31774
       O   -18.50119   13.76409    7.40787
      H1   -18.95832   14.50539    7.00992
       H   -18.21925    6.39505   12.03226
       O   -17.71566    7.26126   12.27028
      H1   -17.95020    7.70463   13.08918
       H   -14.71590   14.36726   11.66890
       O   -15.46948   14.03149   11.17347
      H1   -16.16452   14.76515   11.14916
       H   -17.31208   14.70830   13.09927
       O   -18.07789   14.87327   12.55652
      H1   -18.26011   15.83675   12.46554
       H   -12.98701    8.06440   11.27103
       O   -12.12600    8.43855   10.96296
      H1   -11.34318    8.05761   11.40413
       H   -14.02275   13.46931    6.23704
       O   -13.58585   12.77075    6.71617
      H1   -14.14449   11.98579    6.48003
       H   -17.11760    8.83023    4.99340
       O   -16.96794    8.84629    5.91617
      H1   -17.29539    9.75539    6.09082
       H   -15.45381    9.84519    5.87981
       O   -14.75809   10.55797    5.84733
      H1   -14.35193   10.38551    4.98444
       H   -17.13828   15.16845    8.85083
       O   -16.97563   15.83826    9.52946
      H1   -16.16585   16.29505    9.28862
       H   -19.03594    9.63661   10.54661
       O   -19.38610    9.16855   11.28363
      H1   -18.60404    8.65821   11.58281
       H   -19.05083   14.35723   10.96648
       O   -19.58942   14.10474   10.25688
      H1   -20.14478   13.49588   10.72219
       H   -12.58878   11.72322   10.16656
       O   -11.81264   11.18109   10.40886
      H1   -12.00795   10.22961   10.48934
       H   -14.32026   13.45613    9.75110
       O   -13.44422   13.18728    9.34189
      H1   -13.57300   13.04419    8.44411

