102
frame 5 | Written by MDAnalysis XYZWriter (release 2.4.3)
       H    16.27922    5.79035   10.91422
       O    15.54048    6.45742   11.04088
      H1    14.87567    6.04247   11.60947
       H    18.42267    5.51090    9.27306
       O    18.03769    5.37873   10.17078
      H1    18.19063    4.45892   10.13233
       H    14.71345    2.86840    7.78981
       O    15.20662    3.57373    7.33679
      H1    14.78026    4.39920    7.58417
       H    18.58020   11.45335   11.16329
       O    19.13904   11.56779   12.01684
      H1    19.38396   10.71122   12.30404
       H    10.03406    9.43964   13.86360
       O    10.38632    9.65000   12.99407
      H1     9.86236    9.09210   12.40082
       H    19.13277    6.83926    7.72236
       O    19.44530    5.89038    7.72878
      H1    18.61987    5.29734    7.56373
       H    12.46461   11.35855    9.07881
       O    11.62934   11.40844    9.60595
      H1    11.67061   12.30597    9.99359
       H    15.09401    9.65843   10.04488
       O    15.48750    9.31304   10.84298
      H1    15.33550    8.39388   10.78774
       H    16.03122    3.35741   13.38364
       O    15.23721    3.57523   13.90578
      H1    15.10712    2.85886   14.53667
       H    12.05140    7.23795   14.63587
       O    11.48338    7.13962   13.85974
      H1    11.49814    8.03839   13.42617
       H    14.03867   10.05818   11.90014
       O    13.28060   10.40934   12.40335
      H1    12.49302   10.08290   12.05841
       H    12.16955    7.47125    6.73905
       O    12.53982    8.21027    6.25265
      H1    11.75276    8.76617    6.04985
       H    16.94097    8.98479    4.34926
       O    16.45834    8.89578    5.19396
      H1    16.34642    7.97558    5.42414
       H    17.04420   10.87672    6.03881
       O    17.29296   11.77013    6.28664
      H1    18.10336   11.63459    6.77367
       H    15.33395    6.61589    6.70534
       O    15.76459    6.54517    5.87348
      H1    15.06981    6.63211    5.23071
       H    16.61152   12.39063    8.96825
       O    15.83484   13.01133    8.68941
      H1    16.01880   13.24689    7.78503
       H    14.64727   11.26649   14.91755
       O    14.14585   10.42211   14.98989
      H1    13.59734   10.32020   14.20392
       H    11.98630    7.06736   10.98342
       O    11.69769    7.80976   10.44699
      H1    10.79638    7.91657   10.71706
       H    15.00322   11.38663    8.47355
       O    14.59662   10.48384    8.60848
      H1    14.67946   10.10722    7.75206
       H    16.27900    2.45978   10.57096
       O    16.35684    2.57538   11.50650
      H1    16.26184    1.64531   11.85384
       H    13.58367    9.65919    5.81145
       O    14.17627   10.32402    5.45055
      H1    15.01060    9.79737    5.33226
       H    11.72359    6.79045    9.07960
       O    11.58520    6.36649    8.21619
      H1    11.39417    5.41526    8.32082
       H    10.72858   11.06006    8.01569
       O    10.46274   11.05135    7.05522
      H1    10.35275   11.96575    6.76820
       H    12.82452    6.07872   13.20964
       O    13.49552    5.62435   12.67970
      H1    14.06451    5.12264   13.32709
       H    18.08220   10.21026    9.21249
       O    17.55596   10.88939    9.78568
      H1    16.79453   10.45845   10.11100
       H    17.99873    7.36055   14.73674
       O    18.85009    7.35573   15.20011
      H1    18.84268    7.63915   16.11322
       H    16.17509    8.67184   14.52761
       O    16.49803    7.93043   14.03247
      H1    16.21947    7.97859   13.10712
       H    10.88021    4.34497   10.67357
       O    11.13589    5.01662   11.31230
      H1    12.01605    4.77265   11.63080
       H    15.49762    5.28741   15.63201
       O    16.11660    5.21000   16.35457
      H1    15.69487    5.05949   17.19739
       H    16.76517   13.14893   14.30630
       O    15.93394   12.91724   14.72997
      H1    15.46360   13.70951   14.95813
       H    11.97310   13.31486   12.23668
       O    12.37249   12.98405   13.04957
      H1    12.78998   12.21358   12.71542
       H    13.23001    6.07396    8.27230
       O    14.21217    6.03289    8.20104
      H1    14.55311    6.10527    9.08301
       H    19.69205    8.92225    8.36910
       O    18.78449    8.59270    8.64386
      H1    18.93640    8.11162    9.44493
       H    14.63030    7.27016   15.02510
       O    13.70798    7.16177   15.36502
      H1    13.63408    7.85449   16.06639

