102
frame 11 | Written by MDAnalysis XYZWriter (release 2.4.3)
       H    -4.17505    6.37494   -8.42057
       O    -4.23080    5.65583   -7.78923
      H1    -5.09272    5.72163   -7.30367
       H     3.30617    9.20539   -3.44933
       O     3.06587    9.49052   -4.34995
      H1     3.10804    8.64422   -4.88536
       H    -0.00715    8.70278   -6.37378
       O    -0.18507    8.14937   -7.12846
      H1    -0.49180    8.89799   -7.68570
       H     0.56654    5.11028   -7.96600
       O     1.43025    5.05091   -8.32666
      H1     1.18856    5.19842   -9.23348
       H     0.00265   12.45817  -12.25526
       O    -0.74490   12.01328  -12.70710
      H1    -1.28948   11.56764  -12.07373
       H    -3.57694    8.31140   -5.29342
       O    -4.00590    9.17691   -5.26083
      H1    -4.95570    9.11725   -5.31785
       H    -3.65753   10.00867   -3.40929
       O    -3.56058   10.84348   -2.91411
      H1    -3.90328   10.70657   -1.97829
       H    -0.29430    7.08255  -13.91238
       O    -0.61114    7.78785  -13.33201
      H1    -0.47119    7.48082  -12.40026
       H     3.83192    6.15846   -5.17437
       O     4.11898    7.03840   -5.46532
      H1     3.99598    7.05177   -6.39845
       H     0.36114    9.09670  -12.93300
       O     1.07723    9.73106  -12.63077
      H1     0.66271   10.62634  -12.56748
       H     2.69750   10.33670   -8.64453
       O     3.56581   10.66617   -8.32763
      H1     3.84095   11.32602   -8.92072
       H     2.29414    7.01899   -8.36574
       O     2.20711    7.88880   -8.74964
      H1     1.37591    8.09711   -8.24864
       H     3.01665    8.78242  -11.04973
       O     3.80903    8.67460  -11.50484
      H1     3.55235    8.87285  -12.40325
       H     2.21352   10.81845   -5.51362
       O     1.37499   11.19940   -5.84111
      H1     0.70929   10.63855   -5.35762
       H    -0.25693   11.59582   -2.28404
       O    -0.58965   10.82094   -2.78851
      H1    -1.50981   10.80267   -2.76199
       H    -1.64428    9.41521  -10.98330
       O    -2.20718   10.20806  -11.19798
      H1    -2.48300   10.55494  -10.31226
       H     2.12761    5.30353  -11.49618
       O     1.31923    5.31924  -10.98772
      H1     0.63289    4.84988  -11.46093
       H    -2.47180   10.82807   -6.48866
       O    -1.64332   11.21735   -6.19642
      H1    -1.40268   11.87213   -6.90799
       H    -3.04981    6.26350   -5.91601
       O    -2.95373    6.78398   -5.12112
      H1    -2.03499    6.74960   -4.91388
       H    -0.65520    6.94902  -10.37378
       O    -0.58782    7.95206  -10.30013
      H1     0.31588    8.17248  -10.60783
       H    -2.04949    4.52731  -10.71465
       O    -1.77694    5.28574  -10.19045
      H1    -2.54883    5.69710   -9.93654
       H    -4.20141   10.57487   -8.26419
       O    -3.49023    9.97560   -8.00614
      H1    -3.76440    9.65842   -7.13509
       H     1.45860    6.49783   -3.06122
       O     1.93367    6.79654   -2.24742
      H1     1.33169    6.99376   -1.53297
       H     0.07025   13.23151   -8.82916
       O     1.02083   13.34877   -8.62866
      H1     1.38101   13.85430   -9.34746
       H    -4.21229    7.59987  -10.57535
       O    -4.44230    7.74214   -9.68238
      H1    -3.93122    8.53283   -9.29586
       H     1.17421   13.52486   -3.48447
       O     1.73246   13.54754   -4.23553
      H1     1.41268   12.79131   -4.76451
       H    -3.42743   13.14116   -3.89088
       O    -2.49799   13.38896   -3.94775
      H1    -2.08085   12.55103   -4.13633
       H    -0.76562    6.22409   -6.92872
       O    -1.19837    5.33649   -6.98285
      H1    -1.62764    5.28001   -7.85164
       H     1.13017   10.82613   -7.65906
       O     0.93961   10.75177   -8.60555
      H1     1.10315   11.69131   -8.83582
       H    -2.60962   13.07450   -9.58414
       O    -1.95519   13.24315   -8.85762
      H1    -2.48178   13.58379   -8.13105
       H     4.74178    7.13832   -8.60176
       O     4.94825    7.91105   -8.08420
      H1     4.12881    8.45223   -8.12303
       H    -0.52651    5.96371   -3.46284
       O    -0.21463    6.42158   -4.28197
      H1     0.03797    7.32254   -4.11050
       H     1.13803    9.32064   -4.46667
       O     0.22882    9.07176   -4.53945
      H1    -0.20223    9.71516   -3.95583
       H    -1.69014    2.59574   -5.28697
       O    -1.17036    2.80382   -6.07618
      H1    -1.13901    3.80404   -6.04556

