102
frame 9 | Written by MDAnalysis XYZWriter (release 2.4.3)
       H     6.48301   -0.60047    2.45473
       O     6.77477   -1.43849    2.77485
      H1     6.75179   -2.01285    1.99800
       H     4.37116   -0.98538   -2.87173
       O     3.92147   -1.78202   -3.31627
      H1     4.40873   -2.52680   -2.94882
       H    -2.22283    3.81990    1.39820
       O    -1.46070    3.25346    1.01751
      H1    -1.35746    2.57605    1.69515
       H     6.49430    3.64593    3.98130
       O     6.28213    2.89907    4.54392
      H1     7.04383    2.71155    5.11698
       H     7.81612   -2.50364    0.30884
       O     7.09097   -3.16470    0.52217
      H1     6.25292   -2.84728    0.14671
       H     0.56273    1.32014   -5.52949
       O     0.66143    2.27538   -5.52937
      H1    -0.14393    2.55472   -5.99691
       H     2.17314    4.79078    1.72319
       O     2.55085    3.81094    1.73186
      H1     2.10955    3.34665    1.00064
       H     1.97596    0.99820   -0.01069
       O     2.17930    1.91850   -0.23195
      H1     3.09483    1.98761   -0.45063
       H     5.06785    5.78384   -4.34681
       O     5.04065    6.63089   -4.81625
      H1     4.53694    6.55185   -5.64039
       H     1.35114   -2.16464   -0.58351
       O     2.01793   -2.71887   -0.97137
      H1     2.40243   -2.14167   -1.61498
       H     0.90207    6.11407    1.12758
       O     1.32354    6.20868    2.02333
      H1     1.67152    7.09805    2.06455
       H     6.51676    3.17565    1.13710
       O     6.98920    3.35240    0.33059
      H1     6.51986    4.14196    0.02247
       H    -0.25110    6.18815   -0.89345
       O     0.12127    5.47827   -0.31420
      H1    -0.55723    4.79541   -0.19731
       H     6.68535    6.01035   -2.44067
       O     6.46571    5.09207   -2.37738
      H1     5.55668    5.31419   -2.04603
       H     2.27149   -1.00250   -4.24244
       O     1.45946   -0.71738   -4.75807
      H1     1.19972   -1.51398   -5.28035
       H     6.08654   -0.04904   -2.22267
       O     5.22698    0.34162   -2.28346
      H1     4.95799    0.51975   -1.36397
       H     2.28012    3.92735   -2.82193
       O     2.86980    3.14434   -2.71589
      H1     2.32039    2.37411   -2.48557
       H     3.47545    8.45159   -0.99787
       O     2.75694    8.31876   -1.60676
      H1     2.68542    7.35711   -1.54220
       H    -2.46486    0.27929   -2.21035
       O    -1.53273    0.11129   -2.35818
      H1    -1.01640    0.91263   -2.21721
       H     3.37910   -0.05973    3.61479
       O     2.76125    0.03403    2.86152
      H1     2.29924   -0.79489    2.91666
       H     7.52458    1.26996    2.19624
       O     6.53328    1.26260    2.25855
      H1     6.32131    1.62830    3.17372
       H     5.94566    2.13096   -3.49269
       O     5.37851    2.50891   -4.19454
      H1     4.52438    2.69703   -3.78446
       H     0.33010    2.72566   -1.58055
       O     0.00665    2.30637   -2.39747
      H1     0.12624    2.93918   -3.09986
       H     8.79831    2.63310   -2.45992
       O     8.52333    2.02774   -1.71151
      H1     7.87838    2.39648   -1.08687
       H     3.84457    1.79826   -5.70076
       O     3.28657    2.16833   -6.34447
      H1     2.40540    2.12524   -5.93756
       H     1.39053    6.24282   -3.11448
       O     1.71414    5.65887   -2.44277
      H1     1.04018    5.57270   -1.79098
       H     4.08338    4.81152    0.83136
       O     4.68622    5.10271    0.13530
      H1     4.75541    6.06846    0.32414
       H     4.55222   -1.70884    0.79027
       O     4.31969   -2.58762    0.60725
      H1     3.39408   -2.59273    0.22671
       H    -1.29684   -0.39004    2.11208
       O    -1.48721    0.55535    2.36439
      H1    -2.45838    0.44725    2.41811
       H     1.33233    2.84376    3.20372
       O     1.07061    2.17666    3.84759
      H1     1.63844    1.37506    3.52954
       H     7.99498    0.11775   -2.30942
       O     7.78104   -0.75788   -2.67196
      H1     8.18643   -1.25192   -1.94109
       H     5.23134    0.69104    1.16266
       O     4.47748    0.32145    0.68448
      H1     3.72918    0.40709    1.31291
       H    -1.81048    3.99025   -4.24324
       O    -1.41323    4.79470   -3.82190
      H1    -1.48339    4.52640   -2.88377
       H    -0.33551   -1.28385    0.14946
       O     0.16437   -0.77202   -0.48546
      H1    -0.45705   -0.66093   -1.24105

