102
frame 0 | Written by MDAnalysis XYZWriter (release 2.4.3)
       H   -10.85830   17.52111   -1.65519
       O   -11.51274   17.51379   -0.91983
      H1   -11.15471   16.79059   -0.41482
       H    -2.37879   17.71560   -2.72889
       O    -2.84949   17.40049   -1.95057
      H1    -2.83673   18.17132   -1.35316
       H    -0.22968   14.88238   -2.20299
       O    -0.97317   15.23617   -1.67310
      H1    -1.30709   16.00662   -2.12911
       H    -2.68699   13.78505    3.86905
       O    -2.80705   14.69596    3.61132
      H1    -3.43905   14.68461    2.87743
       H    -4.83495   18.66191    5.15821
       O    -5.72164   18.45268    4.82866
      H1    -5.57150   18.08064    3.92557
       H    -7.98969   16.73037    4.70319
       O    -8.75701   16.75159    4.13872
      H1    -8.77416   15.92494    3.61729
       H    -7.03769   12.83097   -4.60565
       O    -7.91353   13.21563   -4.73193
      H1    -8.24074   12.99467   -5.57706
       H    -1.86682   18.04023   -4.70421
       O    -1.17856   17.61366   -4.15143
      H1    -0.39826   18.15137   -4.15651
       H    -5.80360   18.82839   -1.50807
       O    -5.74815   19.39514   -0.73108
      H1    -6.59254   19.47615   -0.32803
       H   -11.35769   18.96044    0.08188
       O   -11.41716   19.76232    0.59838
      H1   -11.46973   19.40292    1.49728
       H    -7.62412   13.53888    1.93407
       O    -6.87193   13.22178    1.37951
      H1    -7.27563   12.44149    0.90942
       H    -9.09551   18.22330   -5.77035
       O    -9.37987   17.37228   -5.43227
      H1    -8.63720   16.77882   -5.63815
       H    -7.99724   15.17298   -1.82885
       O    -7.73951   15.68339   -1.06318
      H1    -7.42774   14.97689   -0.52342
       H    -3.66324   15.42138   -4.58903
       O    -4.15441   16.20536   -4.79350
      H1    -4.66435   16.46343   -3.98075
       H    -4.15783   11.51269   -4.67797
       O    -4.45042   12.42366   -4.67366
      H1    -4.63411   12.69398   -5.59965
       H   -10.91693   12.39241   -0.21075
       O   -11.00853   13.31531   -0.44872
      H1   -10.60534   13.33225   -1.33824
       H    -0.91326   13.71364    1.21498
       O    -1.53698   13.66638    0.48305
      H1    -1.16852   14.34554   -0.14135
       H    -9.36651   17.73091   -3.72017
       O    -9.49317   17.92603   -2.76358
      H1    -9.53713   18.89259   -2.71533
       H    -7.25180   14.78530   -5.43371
       O    -6.94507   15.57247   -5.92680
      H1    -5.97761   15.61740   -5.74480
       H    -5.50493   14.56360    1.56169
       O    -4.76856   15.13433    1.62447
      H1    -5.01273   15.87992    2.22963
       H    -5.20612   12.52848    4.17644
       O    -5.05924   12.11988    3.27049
      H1    -5.58750   12.62704    2.63590
       H    -6.78263   11.46203   -0.80858
       O    -7.40100   10.92358   -0.25147
      H1    -6.84379   10.15411    0.06983
       H    -0.47728   16.97916    1.39118
       O     0.03094   17.16911    0.59939
      H1    -0.23662   16.65630   -0.18984
       H    -9.60316   13.44472    3.54678
       O    -9.08731   13.90845    2.86862
      H1    -9.90705   14.11129    2.41667
       H    -3.98276   11.98895    1.42534
       O    -3.91537   11.78972    0.48717
      H1    -3.21578   12.44767    0.32785
       H    -1.11743   18.85615   -0.00983
       O    -1.72467   19.53093   -0.32560
      H1    -2.48478   19.41628    0.23762
       H    -5.38036   12.49395   -2.47709
       O    -5.71718   12.70919   -1.55731
      H1    -4.97674   12.46597   -0.95533
       H    -6.76553   17.57689    1.68908
       O    -5.92157   17.56118    2.25409
      H1    -5.12798   17.81886    1.73673
       H    -4.88557   16.75845   -1.97674
       O    -5.70676   16.95196   -2.46014
      H1    -6.29461   16.49529   -1.84122
       H    -4.06026   19.29695   -4.87638
       O    -3.49933   18.78258   -5.46903
      H1    -3.74664   17.89491   -5.25955
       H    -8.34813   17.10215   -0.10645
       O    -8.36198   17.35183    0.86772
      H1    -8.63222   18.28807    0.86175
       H    -3.05223   13.41399   -4.06835
       O    -2.55911   14.20250   -4.18470
      H1    -1.98367   14.28870   -3.44200
       H   -10.44699   14.50706   -3.48702
       O    -9.75046   13.90740   -3.08916
      H1    -9.26906   13.59936   -3.86658
       H   -10.71163   14.85067    0.47453
       O   -10.60452   15.67297    0.99609
      H1    -9.72324   16.06357    0.92881

