102
frame 7 | Written by MDAnalysis XYZWriter (release 2.4.3)
       H    -7.39412   -5.30075   18.06230
       O    -6.72282   -5.42438   18.75101
      H1    -5.81569   -5.12990   18.53695
       H     0.96724   -1.12999   18.20639
       O     1.83037   -1.07534   17.79521
      H1     2.00878   -2.02751   17.53473
       H     1.37545   -6.84586   14.63005
       O     1.80898   -6.59603   15.46966
      H1     2.74059   -6.60338   15.24926
       H    -0.96957   -0.84526   13.62816
       O    -1.84163   -1.17251   13.87287
      H1    -2.45973   -0.38427   13.85808
       H    -2.48299  -11.59364   18.57335
       O    -2.82237  -10.72798   18.31708
      H1    -2.11624  -10.36959   17.72935
       H    -0.22351   -7.70643   13.14938
       O     0.64756   -7.39238   13.15477
      H1     0.92220   -7.24009   12.26896
       H     6.99406   -3.00073   15.53048
       O     6.00237   -2.79501   15.45123
      H1     5.57286   -2.89983   16.33463
       H    -1.58719  -11.78213   14.75963
       O    -2.00032  -10.91302   14.74861
      H1    -1.30749  -10.39618   15.19847
       H    -0.43392   -3.54227   14.29507
       O    -1.36729   -3.85567   14.06428
      H1    -1.93017   -3.06144   13.96694
       H    -1.94204   -7.02045   17.67791
       O    -2.11635   -7.87635   18.08922
      H1    -1.64594   -7.77139   18.89691
       H     0.19394  -10.19779   17.00836
       O    -0.17474   -9.37624   16.66005
      H1    -0.53137   -8.77927   17.35340
       H    -1.68515   -4.25214   10.83696
       O    -0.88804   -4.57968   11.23213
      H1    -1.13198   -4.68693   12.15143
       H    -1.44673   -4.99420   15.71306
       O    -1.33395   -5.83390   16.20633
      H1    -0.79816   -6.35135   15.60663
       H     2.67729   -1.36892   13.73789
       O     3.21664   -1.80367   14.39205
      H1     3.78234   -1.10863   14.84663
       H     1.62541   -0.03119   14.38066
       O     0.98009   -0.05889   15.10467
      H1     1.33957   -0.61198   15.82372
       H    -4.56166   -1.09511   19.18134
       O    -4.82368   -1.71436   19.88356
      H1    -4.76333   -2.59993   19.42603
       H     3.66360   -9.98145   16.39386
       O     4.10010  -10.73430   16.00559
      H1     4.84817  -11.06106   16.59967
       H     3.46186   -9.43960   19.63698
       O     2.50924   -9.44353   19.53093
      H1     2.32935   -9.11768   18.68894
       H     6.69242   -3.08666   18.49738
       O     7.46887   -3.66919   18.55141
      H1     7.98592   -3.33014   17.78816
       H    -1.00476    0.18727   18.78353
       O    -0.72212   -0.69006   19.09629
      H1    -0.97248   -0.70447   20.03148
       H     4.23198   -6.26256   13.32905
       O     4.38748   -6.53283   14.25789
      H1     4.58609   -7.47454   14.15764
       H     4.53431   -7.21675   19.28114
       O     4.28761   -6.65454   18.54417
      H1     5.12775   -6.66379   18.04741
       H     2.11915   -3.31598   14.71089
       O     1.29999   -3.78402   14.82688
      H1     1.45638   -4.72352   14.97071
       H    -1.72438   -3.95836   20.07240
       O    -1.78721   -3.75425   19.13143
      H1    -1.68327   -2.82122   19.09815
       H    -0.29079   -4.75974   18.80865
       O     0.42598   -5.41436   18.70133
      H1     0.28773   -5.85665   17.83149
       H     4.37422   -2.73706   18.40208
       O     5.06429   -2.15578   18.73305
      H1     4.62370   -1.82277   19.54072
       H    -5.36476   -2.07593   15.33491
       O    -5.27062   -2.25335   16.29383
      H1    -4.57889   -1.59282   16.55140
       H    -5.60640   -7.33702   17.93361
       O    -4.95703   -7.04575   17.22946
      H1    -4.28737   -7.72924   17.30537
       H    -3.52130   -4.16479   18.25992
       O    -4.41028   -3.86161   18.27077
      H1    -4.59802   -3.45883   17.38239
       H    -5.53986   -6.07148   14.13528
       O    -4.62457   -6.39253   14.21924
      H1    -4.32197   -6.22949   15.09122
       H     7.19089   -6.36057   16.93449
       O     6.97269   -6.44197   17.87671
      H1     7.13916   -5.57867   18.25134
       H     2.33586   -4.32398   17.97346
       O     2.47794   -3.76871   17.20438
      H1     1.80143   -3.82597   16.54495
       H     2.36827   -8.03166   16.26205
       O     2.93773   -8.56990   16.90259
      H1     3.34608   -7.82568   17.44199
       H     1.35134  -12.25503   17.37173
       O     0.61826  -11.89737   17.96161
      H1     0.99702  -11.89622   18.85561

