102
frame 6 | Written by MDAnalysis XYZWriter (release 2.4.3)
       H    -5.03461   -8.94280    5.64035
       O    -5.52679   -8.32028    6.13371
      H1    -6.40859   -8.66673    6.27472
       H    -6.56949   -7.31074   10.15191
       O    -7.46536   -7.49959    9.79371
      H1    -7.47304   -8.46932    9.76811
       H    -8.16751   -5.85581    6.16542
       O    -8.47363   -4.93833    5.96639
      H1    -7.68141   -4.41022    5.88507
       H    -1.30595   -6.10928    6.24899
       O    -0.48188   -6.66308    6.33345
      H1    -0.90411   -7.51696    6.39822
       H     1.24529   -6.16859    3.76726
       O     0.50456   -6.76578    3.76797
      H1     0.21987   -6.93919    4.68778
       H    -8.66842  -10.80933    9.39620
       O    -7.74066  -10.60626    9.53443
      H1    -7.27139  -11.26153    8.94682
       H    -7.59348  -13.17748   11.21481
       O    -6.71528  -13.54052   11.22983
      H1    -6.36593  -13.17819   10.44277
       H    -4.37610   -4.89179   12.74889
       O    -4.68567   -4.50487   11.90742
      H1    -4.49772   -5.26964   11.34095
       H     0.13519   -8.80678   12.44851
       O     0.54401   -7.98052   12.42313
      H1     0.13575   -7.41859   11.75851
       H    -3.95191  -10.73956    5.54625
       O    -3.56120   -9.94234    5.12911
      H1    -3.36673  -10.06635    4.18838
       H    -8.21070   -4.59457    9.73749
       O    -8.09318   -3.64159    9.93761
      H1    -7.18687   -3.40416    9.76208
       H    -1.56544   -6.66574    9.50177
       O    -1.17878   -7.26228   10.23436
      H1    -1.60706   -6.81781   11.04520
       H    -5.64595   -6.72119    5.58136
       O    -5.59600   -5.69888    5.57934
      H1    -6.26138   -5.38330    4.95702
       H    -2.26226   -9.35146   12.10893
       O    -1.41832   -9.70353   11.69063
      H1    -1.18829   -9.37189   10.81418
       H    -3.52853  -14.13888   10.27743
       O    -2.75092  -13.63258   10.17657
      H1    -1.85988  -14.13867   10.20650
       H    -4.39028   -7.41684   11.27491
       O    -4.86894   -6.88951   10.65862
      H1    -4.53136   -7.12000    9.77365
       H    -3.84353  -11.31521   11.73536
       O    -3.28760  -11.81023   12.37176
      H1    -3.08256  -12.68416   11.97033
       H    -2.06679   -4.88850   11.13597
       O    -1.72335   -5.17901   12.04506
      H1    -2.38024   -4.89862   12.64682
       H    -8.76182  -10.62396    5.74741
       O    -9.42430   -9.89455    5.91218
      H1    -9.81173   -9.63593    5.03364
       H     0.84810   -9.57291    9.32126
       O     0.08759  -10.09030    9.02542
      H1     0.39359  -11.02604    9.08507
       H    -2.28881   -9.80724    6.56395
       O    -1.68592   -9.23086    7.02185
      H1    -1.24072   -9.73170    7.69159
       H    -5.82550   -1.77083    9.05657
       O    -5.56823   -2.61787    9.48965
      H1    -5.02500   -2.29561   10.22936
       H    -3.17470   -8.50525    7.82448
       O    -3.98990   -8.22779    8.24542
      H1    -4.64227   -8.12555    7.52264
       H    -2.04360   -4.22247    9.04194
       O    -2.29958   -5.04346    9.52882
      H1    -3.28966   -5.09195    9.47773
       H    -0.71686  -10.14750    5.98734
       O    -0.04372  -10.73442    5.61645
      H1     0.63447  -10.67651    6.31313
       H    -4.38064   -8.80206   13.09368
       O    -3.73200   -8.20173   12.73242
      H1    -3.55997   -7.52131   13.38323
       H    -3.23027   -4.34639    5.86440
       O    -2.69942   -5.00491    6.30991
      H1    -3.28639   -5.31721    7.03114
       H    -3.18793   -5.87769    3.21592
       O    -4.02963   -6.33712    3.34137
      H1    -4.42264   -5.78562    4.01576
       H    -5.18597   -3.96425    8.38970
       O    -5.05979   -4.93658    8.21699
      H1    -5.30546   -5.15134    7.26571
       H    -4.15612  -11.44388    8.13811
       O    -4.37444  -11.67218    7.18346
      H1    -4.00810  -12.53395    6.94529
       H    -6.56029  -13.76426    8.05952
       O    -6.56062  -12.82944    8.23813
      H1    -5.79686  -12.47452    7.75266
       H    -5.96865  -10.25636    3.63718
       O    -6.40793   -9.45887    3.42684
      H1    -5.76817   -8.75844    3.27845
       H    -8.02906   -7.63638    7.97307
       O    -8.15273   -7.68880    7.03419
      H1    -8.55704   -8.56055    6.90740
       H    -3.25007  -10.57450    9.95516
       O    -4.10157  -10.62340    9.61329
      H1    -4.13277   -9.70876    9.21569

