102
frame 7 | Written by MDAnalysis XYZWriter (release 2.4.3)
       H   -18.46263    0.96946   10.42278
       O   -19.26780    1.19582   10.82718
      H1   -18.95353    1.67519   11.59391
       H   -16.05118    6.36160    9.24010
       O   -15.87542    6.26370   10.19475
      H1   -16.73798    6.37602   10.73741
       H   -16.93803    4.26663   18.47505
       O   -16.03291    4.32283   18.33926
      H1   -15.82538    5.25515   18.57064
       H   -10.68777    6.29160   13.55947
       O   -10.99801    6.35731   14.52738
      H1   -11.52728    7.15047   14.57481
       H   -15.94910    5.09026    7.29316
       O   -15.43638    4.25701    7.28214
      H1   -14.55163    4.59894    7.45894
       H   -12.42957    2.43848   13.51210
       O   -12.35625    1.55385   13.11419
      H1   -11.85929    1.06461   13.79499
       H   -12.32998    7.36503   10.66658
       O   -11.70483    6.87277   10.05008
      H1   -10.87407    7.04388   10.43735
       H   -14.20653    2.88877    9.66855
       O   -13.23517    3.03938    9.79072
      H1   -12.92330    2.12372   10.06868
       H   -13.24858    3.99983   15.24375
       O   -12.67035    4.17377   14.52101
      H1   -11.96879    4.64136   14.89416
       H   -15.51834    7.98172   10.33192
       O   -15.21524    8.92151   10.17748
      H1   -15.80171    9.54669   10.59919
       H   -18.68246    5.69052   15.05781
       O   -17.95900    5.23376   15.60693
      H1   -17.81366    4.45358   15.09902
       H   -16.41040    2.58679   13.62327
       O   -16.43382    3.37630   14.13445
      H1   -15.98196    3.94639   13.51976
       H   -19.38075    2.25075   14.01050
       O   -18.82975    2.46465   13.22809
      H1   -18.00748    2.86453   13.53591
       H   -16.59418    6.22414   15.51418
       O   -15.74924    6.63109   15.51960
      H1   -15.28844    6.32610   14.69350
       H   -15.25414    1.05235   12.38829
       O   -15.63195    1.82857   11.94563
      H1   -15.93133    1.49239   11.02000
       H   -14.97735    9.95982   15.91702
       O   -15.80831    9.38505   15.92828
      H1   -15.51920    8.48365   15.82312
       H   -13.61595    9.05147   14.40519
       O   -13.19546    8.20067   14.63325
      H1   -13.29715    8.05669   15.57891
       H   -17.12058   10.27396   14.98825
       O   -17.93941   10.74451   14.71031
      H1   -18.26884   11.11283   15.57005
       H   -14.25971   11.58787   13.92287
       O   -14.53317   10.79210   13.43775
      H1   -15.01537   11.16587   12.73609
       H    -8.73721    5.46095   12.56512
       O    -9.35171    5.96008   12.00057
      H1    -9.98752    5.27879   11.68622
       H   -12.56650    0.22467   11.31522
       O   -12.24682   -0.09805   10.49305
      H1   -12.97849   -0.56176   10.05921
       H   -15.17858   -1.29175   12.92711
       O   -14.90138   -0.46997   13.31968
      H1   -13.98374   -0.66304   13.52854
       H   -14.25076    6.67767   16.67575
       O   -13.73324    7.09241   17.36687
      H1   -13.04700    6.45867   17.61727
       H   -14.78282    5.45711   12.19467
       O   -14.80481    5.43494   13.15183
      H1   -13.96693    4.98941   13.38113
       H    -9.98697    7.31183   17.08458
       O    -9.40725    6.56197   16.80255
      H1    -9.82583    6.31785   15.95429
       H   -11.97993    4.05148   11.02314
       O   -11.17189    3.80494   11.51580
      H1   -11.52617    3.75344   12.42477
       H   -20.11622    8.86983   13.29013
       O   -19.67837    9.65731   12.96907
      H1   -18.95538    9.75243   13.55747
       H   -19.60788    6.88743   11.27821
       O   -18.83257    7.44802   11.30256
      H1   -18.97738    8.11005   12.07428
       H   -13.89495    8.72998   11.48641
       O   -13.01163    8.47429   11.70085
      H1   -13.04492    8.08813   12.59411
       H   -15.01657    6.95989   18.67512
       O   -15.71360    6.91934   19.36125
      H1   -15.31746    6.71154   20.21305
       H   -15.20465    3.49429   16.92573
       O   -14.69598    3.04561   16.25627
      H1   -15.46521    2.98173   15.60555
       H   -15.12359    1.58178   17.21113
       O   -15.50141    0.81565   17.77445
      H1   -14.73458    0.75986   18.43486
       H   -12.52268    5.90863    8.75945
       O   -12.98383    5.27845    8.14273
      H1   -12.64977    4.44504    8.54770
       H   -19.01438    5.39102   19.12266
       O   -18.88330    4.82969   18.31813
      H1   -18.66214    5.36893   17.53112

