102
frame 0 | Written by MDAnalysis XYZWriter (release 2.4.3)
       H     4.54460  -18.91574  -13.28014
       O     5.05314  -19.01167  -14.05835
      H1     5.28464  -19.93794  -14.14770
       H     6.49076  -16.40067  -11.07166
       O     5.57272  -16.58302  -10.99427
      H1     5.12184  -16.21801  -11.76932
       H     9.23847  -16.04309  -17.63949
       O    10.00537  -15.47277  -17.53874
      H1     9.68565  -14.62146  -17.89993
       H    14.04359  -17.57453  -16.18017
       O    13.20759  -17.17373  -15.97390
      H1    12.78264  -17.66464  -15.20281
       H     5.32863  -16.24416  -14.89050
       O     6.13766  -15.73747  -14.66907
      H1     6.68108  -15.69081  -15.45547
       H     6.12169  -13.00086  -11.08241
       O     6.16217  -13.21154  -12.01816
      H1     7.07518  -13.39686  -12.24620
       H     3.02845  -17.27383  -15.38445
       O     3.93027  -17.20860  -15.62093
      H1     4.28475  -17.95619  -15.14248
       H    10.82119  -16.67791  -14.31199
       O    10.99496  -17.49335  -13.92513
      H1    10.93709  -17.31098  -12.95972
       H     5.74494  -12.27856  -16.80874
       O     6.04649  -13.15230  -16.90960
      H1     6.07993  -13.58609  -16.05432
       H     8.26187  -17.03461   -9.03375
       O     8.86937  -16.35846   -9.33942
      H1     8.63078  -15.95752  -10.19720
       H     8.72953  -11.28885  -14.07678
       O     9.17966  -11.30573  -14.98991
      H1     8.90348  -10.48265  -15.41608
       H     4.71188  -13.71760   -8.69506
       O     5.06034  -13.10630   -9.41982
      H1     5.31789  -12.23500   -9.06168
       H     2.72398  -18.12531  -11.09366
       O     2.31583  -17.33280  -10.78801
      H1     2.76556  -16.59623  -11.23446
       H    12.15145  -12.85995   -8.98030
       O    11.36954  -13.04559   -8.44753
      H1    11.24680  -14.00128   -8.40814
       H     6.55876  -14.18608   -8.99247
       O     7.26456  -14.50269   -8.38229
      H1     7.74572  -15.15776   -8.86177
       H    14.05289  -14.37232  -12.56731
       O    13.87622  -14.55376  -11.61490
      H1    14.71714  -14.39422  -11.16986
       H    10.79575  -19.70563   -8.29784
       O    11.61491  -19.26707   -7.94067
      H1    11.36778  -18.40881   -8.25131
       H    13.02004  -19.59592  -11.36478
       O    12.24928  -19.58884  -11.96439
      H1    12.71015  -19.55667  -12.81347
       H     7.87174  -11.38705   -8.04243
       O     8.71828  -11.65966   -7.57299
      H1     9.12670  -12.18711   -8.24249
       H     6.88861  -18.77618  -14.58380
       O     7.67742  -18.76996  -15.21281
      H1     7.39759  -18.14202  -15.94231
       H    11.85471  -16.05594   -9.76566
       O    11.42028  -16.10707   -8.91964
      H1    10.45366  -16.22642   -9.13751
       H     6.81541  -18.97583   -9.20417
       O     7.02686  -18.19117   -8.62308
      H1     6.46468  -18.22623   -7.83799
       H     3.61295  -14.96162  -13.55350
       O     3.47437  -15.48017  -12.73744
      H1     2.55719  -15.77868  -12.82578
       H     9.94423  -14.03966  -14.36540
       O    10.15090  -14.87825  -14.72269
      H1    10.12985  -14.73225  -15.72614
       H    12.10209  -15.36974  -11.95885
       O    11.18516  -15.56529  -11.68096
      H1    10.66383  -15.43692  -12.47369
       H     4.97588  -15.90403   -9.18897
       O     4.69240  -15.58708   -8.31362
      H1     5.51860  -15.22259   -8.05386
       H     9.39436  -13.95931  -12.08673
       O     9.23102  -13.01973  -12.30052
      H1    10.05318  -12.55873  -12.10796
       H     8.79715  -18.60097  -13.09534
       O     8.29402  -18.39941  -12.28232
      H1     7.65743  -19.11907  -12.14710
       H     8.16223   -9.50249  -12.25507
       O     7.61332  -10.17477  -12.80247
      H1     7.36485  -10.81572  -12.12328
       H     8.68861  -14.71714   -6.96534
       O     8.97355  -14.89076   -6.11193
      H1     9.90951  -15.00268   -6.17374
       H     7.54947  -16.70146  -18.35096
       O     6.93706  -16.22346  -17.78855
      H1     6.30798  -15.89877  -18.44233
       H     3.17647  -12.79635  -13.86593
       O     3.92291  -12.23096  -13.53976
      H1     4.59143  -12.79409  -13.12007
       H     7.70913  -15.28788  -12.73652
       O     8.22580  -15.50930  -11.98510
      H1     8.55529  -16.39669  -12.18059
       H    14.42892  -16.17651  -10.11540
       O    13.98888  -16.98762  -10.44071
      H1    14.09951  -17.01438  -11.35052

