102
frame 3 | Written by MDAnalysis XYZWriter (release 2.4.3)
       H     1.41568   -7.66125    2.26594
       O     1.42744   -7.70425    1.33491
      H1     2.10311   -7.13410    0.96990
       H    -5.54233   -8.00578   -2.31978
       O    -5.04007   -8.09945   -1.48293
      H1    -4.90725   -7.22011   -1.13018
       H     3.19035   -5.11007   -5.58049
       O     3.25434   -4.24947   -5.99356
      H1     3.09681   -4.37541   -6.95356
       H     4.70869   -1.29281   -3.16161
       O     4.51370   -2.15352   -3.53808
      H1     4.62895   -2.83100   -2.87579
       H    -0.05420   -7.88322   -2.48513
       O     0.68547   -7.91270   -3.10970
      H1     0.62051   -8.80304   -3.47909
       H    -1.64890   -2.84256   -3.29275
       O    -1.98272   -2.48711   -4.14051
      H1    -2.19476   -3.24925   -4.66603
       H     1.28145   -5.73187   -3.27683
       O     0.78652   -4.94506   -3.25755
      H1     1.29828   -4.18206   -3.65151
       H    -3.14971   -5.54259   -5.83314
       O    -4.06323   -5.67227   -6.05901
      H1    -4.18996   -5.99889   -6.97898
       H    -5.26162   -2.11873   -2.76887
       O    -4.29810   -2.34427   -2.51748
      H1    -3.81593   -1.87517   -3.25411
       H    -0.73093   -5.85432   -5.66723
       O    -1.36216   -5.34929   -5.08850
      H1    -0.82025   -5.27725   -4.31069
       H    -1.58361   -5.15605    1.47143
       O    -1.82558   -5.14350    0.56796
      H1    -1.32304   -4.44262    0.28037
       H    -0.31104   -3.89103   -6.08496
       O     0.17498   -3.18304   -6.40806
      H1     0.30589   -3.33110   -7.33183
       H     0.90660   -0.72943   -1.29646
       O     1.24953   -1.67237   -1.25690
      H1     1.35194   -1.94603   -2.18051
       H    -0.04632   -2.86871   -1.55435
       O    -0.88717   -3.36415   -1.76875
      H1    -0.53721   -4.14732   -2.18412
       H     2.19489   -3.26289    2.53005
       O     1.86700   -3.56210    3.42644
      H1     1.14832   -2.92361    3.55676
       H     2.73338   -2.76199   -4.20924
       O     1.79140   -2.52464   -4.16774
      H1     1.45283   -2.83922   -5.04437
       H    -1.53773   -0.50482   -4.37308
       O    -1.60181    0.46748   -4.61459
      H1    -0.72226    0.83360   -4.42109
       H    -0.67452    0.98327   -1.38485
       O     0.31250    0.90980   -1.40101
      H1     0.54865    1.36411   -2.24922
       H     4.03260   -7.22493   -4.62310
       O     3.20492   -6.69323   -4.82096
      H1     2.59352   -7.28991   -5.30276
       H    -0.89993   -6.55367   -0.17265
       O    -0.59498   -7.36742   -0.52374
      H1     0.15553   -7.52914    0.03755
       H    -4.82601   -1.73026   -0.74630
       O    -4.91741   -1.30747    0.09678
      H1    -5.85065   -1.51208    0.44701
       H     3.38433    0.10230   -4.37912
       O     2.48540    0.14865   -4.72247
      H1     1.97254   -0.64286   -4.47098
       H    -4.95968   -5.34965   -4.23184
       O    -5.00179   -5.08975   -3.29859
      H1    -5.01316   -4.13329   -3.29378
       H     4.42629   -4.04638   -0.91350
       O     5.06325   -4.10223   -1.60453
      H1     5.77899   -3.51413   -1.40605
       H    -1.95580   -7.61068   -5.10359
       O    -2.29903   -8.50185   -5.15726
      H1    -3.22436   -8.49365   -4.78129
       H    -3.54821   -5.18650   -0.32358
       O    -4.45550   -5.55902   -0.52736
      H1    -4.51035   -5.38239   -1.47180
       H     3.93378   -6.05558   -0.27567
       O     3.44487   -5.95726    0.54454
      H1     3.22448   -5.03382    0.55660
       H     2.44392   -2.64526   -0.07471
       O     2.86408   -3.29087    0.55592
      H1     3.62868   -2.81364    0.85330
       H    -2.18632   -1.73342    0.76263
       O    -1.69703   -1.36054    0.00935
      H1    -1.68529   -1.94971   -0.71962
       H     0.64119   -7.50963   -6.89732
       O     0.02169   -6.86240   -7.04440
      H1    -0.65806   -7.19349   -7.62201
       H    -3.09991   -1.73513    2.76572
       O    -3.14202   -2.46644    2.08675
      H1    -3.94466   -2.21622    1.55609
       H    -1.95748   -4.12024    2.71504
       O    -1.23385   -4.67780    3.05063
      H1    -1.62698   -5.55155    3.42030
       H     0.73653   -0.18504    2.24772
       O     0.94847   -0.76531    1.51599
      H1     0.14991   -0.77031    0.99191
       H    -2.95013    0.36285   -1.13562
       O    -2.68524    1.27253   -1.22479
      H1    -3.10415    1.76679   -1.91545

