102
frame 7 | Written by MDAnalysis XYZWriter (release 2.4.3)
       H   -16.23299   12.56771   19.13993
       O   -16.00763   11.84674   18.56842
      H1   -15.52539   11.18171   19.09093
       H   -18.46263    0.96946   10.42278
       O   -19.26780    1.19582   10.82718
      H1   -18.95353    1.67519   11.59391
       H   -16.05118    6.36160    9.24010
       O   -15.87542    6.26370   10.19475
      H1   -16.73798    6.37602   10.73741
       H   -16.93803    4.26663   18.47505
       O   -16.03291    4.32283   18.33926
      H1   -15.82538    5.25515   18.57064
       H   -16.18618   12.45361   11.24917
       O   -16.50719   11.51447   11.22302
      H1   -17.24279   11.58375   11.86539
       H   -18.78250   11.35883    5.92395
       O   -19.08098   10.81896    6.69331
      H1   -19.23083   11.54843    7.34776
       H   -14.36035   11.70495   17.06049
       O   -13.93537   11.28380   16.29712
      H1   -13.28159   11.82969   15.85460
       H   -15.51834    7.98172   10.33192
       O   -15.21524    8.92151   10.17748
      H1   -15.80171    9.54669   10.59919
       H   -15.32274   14.32728   16.90660
       O   -15.48127   14.50095   15.93237
      H1   -15.80049   15.42898   15.94667
       H   -18.68246    5.69052   15.05781
       O   -17.95900    5.23376   15.60693
      H1   -17.81366    4.45358   15.09902
       H   -15.99030   10.14835    7.33990
       O   -16.83133    9.73226    7.43989
      H1   -17.65448   10.20545    7.15497
       H   -16.41040    2.58679   13.62327
       O   -16.43382    3.37630   14.13445
      H1   -15.98196    3.94639   13.51976
       H   -19.38075    2.25075   14.01050
       O   -18.82975    2.46465   13.22809
      H1   -18.00748    2.86453   13.53591
       H   -16.59418    6.22414   15.51418
       O   -15.74924    6.63109   15.51960
      H1   -15.28844    6.32610   14.69350
       H   -14.97735    9.95982   15.91702
       O   -15.80831    9.38505   15.92828
      H1   -15.51920    8.48365   15.82312
       H   -13.61595    9.05147   14.40519
       O   -13.19546    8.20067   14.63325
      H1   -13.29715    8.05669   15.57891
       H   -17.12058   10.27396   14.98825
       O   -17.93941   10.74451   14.71031
      H1   -18.26884   11.11283   15.57005
       H   -14.25971   11.58787   13.92287
       O   -14.53317   10.79210   13.43775
      H1   -15.01537   11.16587   12.73609
       H   -17.22365   13.51909   13.32456
       O   -18.09418   13.19640   13.52884
      H1   -17.96815   12.39761   14.09998
       H   -14.25076    6.67767   16.67575
       O   -13.73324    7.09241   17.36687
      H1   -13.04700    6.45867   17.61727
       H   -14.78282    5.45711   12.19467
       O   -14.80481    5.43494   13.15183
      H1   -13.96693    4.98941   13.38113
       H   -20.11622    8.86983   13.29013
       O   -19.67837    9.65731   12.96907
      H1   -18.95538    9.75243   13.55747
       H   -19.11020   13.17985    9.39733
       O   -18.97474   12.94555    8.44629
      H1   -18.97514   13.75880    7.96557
       H   -19.60788    6.88743   11.27821
       O   -18.83257    7.44802   11.30256
      H1   -18.97738    8.11005   12.07428
       H   -16.86386    7.84125    7.71656
       O   -16.89124    6.85560    7.51532
      H1   -17.91512    6.72651    7.49668
       H   -15.45249   14.68709   12.50745
       O   -16.19354   14.23818   12.06195
      H1   -16.64737   15.01237   11.57789
       H   -17.96438   15.54586   14.83477
       O   -18.60709   16.21100   14.54532
      H1   -18.37839   16.47788   13.57179
       H   -17.57758   11.24575   17.72496
       O   -18.49491   11.22081   17.41050
      H1   -18.92798   11.95684   17.89999
       H   -13.89495    8.72998   11.48641
       O   -13.01163    8.47429   11.70085
      H1   -13.04492    8.08813   12.59411
       H   -15.01657    6.95989   18.67512
       O   -15.71360    6.91934   19.36125
      H1   -15.31746    6.71154   20.21305
       H   -18.32182    9.81335    9.26849
       O   -19.09824    9.32320    9.43021
      H1   -18.94600    8.59655   10.09537
       H   -19.01438    5.39102   19.12266
       O   -18.88330    4.82969   18.31813
      H1   -18.66214    5.36893   17.53112
       H   -19.11043   13.50297   12.12170
       O   -19.62707   13.34411   11.30209
      H1   -19.93650   12.42020   11.24047
       H   -16.72629   12.65281    8.15898
       O   -15.87232   13.10636    8.31502
      H1   -15.44882   13.12266    7.43506

