102
frame 2 | Written by MDAnalysis XYZWriter (release 2.4.3)
       H   -10.19920    5.48085   13.39178
       O   -11.00834    5.64221   13.90635
      H1   -11.43208    6.46094   13.54652
       H    -5.36968   12.33723   15.86107
       O    -4.51773   12.39984   16.30346
      H1    -4.68562   13.23832   16.79800
       H    -7.02042   10.42431   14.53310
       O    -7.00842   11.06146   15.26950
      H1    -7.35773   10.64854   16.04024
       H   -10.38729    7.77130    8.26222
       O    -9.70234    7.74949    8.93327
      H1    -9.98975    7.05509    9.50084
       H   -12.62089    8.06581   11.80645
       O   -12.60396    8.34253   10.87023
      H1   -13.49846    8.53804   10.61985
       H   -13.30284    3.56428   17.01633
       O   -12.40353    3.76489   16.66042
      H1   -11.84556    3.36234   17.37031
       H   -14.02464    5.13329   14.27831
       O   -13.90812    5.37650   13.32837
      H1   -12.95221    5.36135   13.15029
       H    -5.98945   10.66027    9.93610
       O    -6.03643   11.14602   10.77021
      H1    -6.04895   10.42297   11.42381
       H   -11.36226   10.97731   16.16383
       O   -11.07276   11.70969   15.55997
      H1   -11.85363   11.99705   15.14493
       H   -14.14928    9.90055   15.70374
       O   -13.96434    8.98699   15.54727
      H1   -14.04483    8.64757   16.46920
       H    -7.72379    2.46358   14.15405
       O    -6.82445    2.61016   14.41807
      H1    -6.49851    3.48961   14.12237
       H    -7.27622    7.46014   11.55522
       O    -6.96221    6.92084   10.85077
      H1    -6.72918    7.60722   10.16103
       H    -7.66827    8.07406   18.55016
       O    -7.86052    9.00053   18.81030
      H1    -8.30702    9.06400   19.66584
       H    -7.86774    4.79157   12.79661
       O    -8.79932    4.55417   12.58156
      H1    -8.82896    3.62977   12.47894
       H   -14.29863    6.37955   16.92870
       O   -13.69849    6.79583   17.61604
      H1   -12.85920    6.76531   17.15849
       H   -11.49059   12.98482   16.81128
       O   -12.02066   13.59185   17.32265
      H1   -11.43925   14.27714   17.70429
       H    -8.98361    8.37376   14.95199
       O    -8.76688    7.62788   15.55364
      H1    -9.61875    7.38861   15.94687
       H    -6.76408    7.54283   15.19430
       O    -5.91302    7.48311   14.74414
      H1    -5.24408    7.45306   15.42227
       H   -10.50347    2.05793   19.22032
       O   -10.89238    2.77619   18.68933
      H1   -10.98307    3.54773   19.27443
       H    -9.91980    9.92533   13.06919
       O   -10.14222    9.60578   13.96288
      H1   -10.43441   10.43345   14.31528
       H    -7.88150    6.81095   17.01990
       O    -7.14423    6.71556   17.68974
      H1    -6.60265    5.92398   17.47888
       H    -2.49901    5.78411   15.23480
       O    -3.33791    5.98781   15.69282
      H1    -3.21259    6.96532   15.90143
       H    -5.97968    8.87893   13.60785
       O    -6.07067    9.57045   12.97889
      H1    -5.14921    9.92641   12.84398
       H    -6.08016    6.02642   13.77981
       O    -6.18155    5.17505   13.35676
      H1    -5.81570    5.37554   12.47626
       H    -8.72564    4.61405   10.74278
       O    -8.52884    4.62710    9.77436
      H1    -7.73855    5.19901    9.80768
       H   -12.84318    8.29394   14.26194
       O   -12.19383    7.97494   13.62420
      H1   -11.50087    8.68988   13.61263
       H    -7.93312    1.99867   17.92760
       O    -7.22765    2.40204   18.40283
      H1    -7.68648    3.13876   18.80421
       H   -11.36680    5.62749   16.88273
       O   -11.14589    6.44623   16.39535
      H1   -11.23308    6.20503   15.43101
       H    -6.70966    3.40633   17.27513
       O    -6.37108    4.18394   16.75610
      H1    -6.80926    4.14480   15.89228
       H    -9.79240    9.44863   10.42521
       O   -10.37146   10.02469   10.96303
      H1   -11.25585    9.53108   11.07367
       H    -6.15014    9.85542   18.74367
       O    -5.25730   10.00072   18.41112
      H1    -5.14806   10.93617   18.09680
       H   -11.43919    8.86112   17.26898
       O   -10.99277    9.66557   17.61457
      H1   -10.12656    9.34882   17.84808
       H    -4.20855    9.14254   17.05150
       O    -3.69015    8.47176   16.52738
      H1    -2.88826    8.92466   16.26541
       H    -4.01108    7.53533   18.44217
       O    -4.15428    7.13893   19.32208
      H1    -5.00377    7.48826   19.67220

