102
frame 7 | Written by MDAnalysis XYZWriter (release 2.4.3)
       H     4.55701   -2.48981   13.26429
       O     4.78280   -2.63041   12.32543
      H1     4.06787   -2.18480   11.82874
       H     8.03918   -3.16254   11.96374
       O     7.67236   -2.79983   11.13470
      H1     6.71646   -2.76021   11.16915
       H     4.29976   -7.76047    6.15591
       O     4.38981   -6.96192    6.73346
      H1     4.49036   -6.32790    6.02602
       H    -1.21129   -6.01671    5.97530
       O    -0.52726   -6.66564    6.19263
      H1    -1.04958   -7.39097    6.55477
       H     1.73595   -6.80959    3.84245
       O     1.05660   -7.42934    3.54096
      H1     0.80747   -7.81662    4.36604
       H     4.88061   -3.84523    8.48804
       O     5.47694   -3.86190    9.28786
      H1     5.08393   -4.53558    9.82061
       H     2.67321   -2.89365    7.48360
       O     3.28277   -3.61129    7.25510
      H1     2.72870   -4.35573    7.59332
       H     4.60781   -0.80342    5.80516
       O     3.78366   -0.22613    5.76600
      H1     4.01650    0.60485    6.25618
       H     0.26175   -2.20663    2.74310
       O     1.00656   -2.26154    3.41217
      H1     0.78508   -1.65393    4.10640
       H     3.74883   -4.35682    5.27117
       O     4.23181   -4.86164    4.67772
      H1     3.71874   -4.86894    3.81897
       H     3.33229   -4.44211    1.50991
       O     2.73116   -4.75129    2.20277
      H1     2.08577   -4.02024    2.32650
       H    -0.30176   -3.61406    7.34086
       O    -1.12819   -3.13218    7.19951
      H1    -0.84496   -2.32608    6.66110
       H     7.09270   -4.64189    9.29260
       O     7.64390   -5.49634    9.27796
      H1     7.03088   -6.22149    9.07339
       H     3.26858   -0.52523   10.19571
       O     3.28037   -1.47730   10.27311
      H1     4.00195   -1.74375    9.69634
       H     3.42173   -0.85943    3.85932
       O     3.39111   -0.62754    2.94207
      H1     2.49997   -0.97755    2.72509
       H     6.49640    0.54933    5.74688
       O     6.72241    1.46698    6.04411
      H1     7.24342    1.23876    6.80869
       H    -1.68515   -4.25214   10.83696
       O    -0.88804   -4.57968   11.23213
      H1    -1.13198   -4.68693   12.15143
       H     2.68906   -5.82899   10.68942
       O     1.74265   -5.84642   10.36349
      H1     1.18940   -5.17630   10.83986
       H    -2.08329   -1.07331    9.97338
       O    -1.23022   -0.89910    9.53714
      H1    -1.23294   -1.65756    8.87825
       H     0.87738   -0.70148    6.39119
       O     0.19307   -0.68247    5.68135
      H1    -0.20128    0.17388    5.49925
       H     6.60912    0.40009    9.64038
       O     5.74847    0.61837    9.35700
      H1     5.41215    1.37829    9.85928
       H     3.07937   -7.64406    7.75216
       O     2.77974   -8.23033    8.45686
      H1     1.86645   -8.09434    8.66420
       H     4.47708   -4.44729   11.86352
       O     4.46422   -5.41677   11.67196
      H1     5.40619   -5.80408   11.74458
       H    -2.51149   -4.51099    8.06235
       O    -2.97897   -5.23781    8.49831
      H1    -3.81313   -5.19302    8.00632
       H     2.85411   -0.85062    7.19483
       O     2.04452   -1.12577    7.63693
      H1     2.26667   -1.01346    8.56075
       H     6.84786   -2.10870    5.88501
       O     6.46126   -1.27283    5.54115
      H1     6.29630   -1.29512    4.58631
       H    -2.38384   -3.91124    5.72257
       O    -2.38202   -4.61316    5.07717
      H1    -3.33198   -4.66695    4.77480
       H     0.91482    2.54749    7.31276
       O     1.58611    2.25509    7.93836
      H1     2.49757    2.35059    7.54958
       H     0.24819    0.23032    9.78079
       O     1.04617    0.83927    9.97911
      H1     1.34956    1.17193    9.04935
       H    -0.02554   -2.81642   11.87416
       O     0.37303   -1.92929   11.79538
      H1    -0.17999   -1.62739   11.07223
       H     0.46125   -5.87610    7.48450
       O     1.10658   -5.12410    7.64902
      H1     1.34549   -5.20913    8.59543
       H     8.65847   -4.10698    7.00140
       O     7.95821   -3.52304    6.59325
      H1     7.41102   -4.19442    6.14042
       H     4.94286    1.24377    7.88579
       O     4.34028    1.80422    7.30818
      H1     5.09386    1.97174    6.65921
       H     2.31146    1.36067   12.43359
       O     2.40979    0.46805   12.74336
      H1     2.02071   -0.05634   12.04076

