102
frame 7 | Written by MDAnalysis XYZWriter (release 2.4.3)
       H    -2.11741   -8.23969    0.28896
       O    -2.84704   -8.60457    0.80507
      H1    -3.00266   -8.11250    1.63450
       H    -4.77017   -8.08804   -1.73199
       O    -4.55762   -9.00968   -1.62880
      H1    -3.90591   -9.00423   -0.94952
       H     1.10588  -12.02368   -6.24648
       O     0.69712  -12.71771   -6.74503
      H1    -0.19507  -12.78804   -6.38369
       H    -0.18350   -8.68974   -2.42280
       O     0.49680   -9.12718   -2.92981
      H1     0.24647   -9.16442   -3.81231
       H     2.76967  -10.88719   -4.83014
       O     1.78578  -10.88282   -5.00454
      H1     1.37734  -11.46118   -4.36312
       H    -4.24123  -17.55638   -3.56299
       O    -3.51827  -17.99766   -3.95733
      H1    -3.17521  -17.50121   -4.71295
       H    -1.83180  -14.54084   -6.03479
       O    -2.17161  -13.62451   -5.85859
      H1    -2.99868  -13.76740   -5.30729
       H    -1.01466  -13.20414   -4.37388
       O    -0.35473  -13.20082   -3.65150
      H1    -0.85150  -13.50762   -2.86097
       H    -3.74570  -12.43859   -3.68994
       O    -4.05762  -13.35144   -3.86259
      H1    -4.72492  -13.24487   -4.52914
       H    -5.26644  -11.93651    1.72804
       O    -5.15118  -11.95236    2.70420
      H1    -5.58577  -12.71063    3.15089
       H    -2.01770   -7.05147   -1.46522
       O    -1.33414   -7.69547   -1.10929
      H1    -0.78156   -7.17854   -0.59262
       H    -8.68813  -15.18866   -4.51800
       O    -8.63350  -14.29711   -4.94181
      H1    -9.26245  -13.76687   -4.37849
       H    -3.75443  -14.64518   -6.97800
       O    -4.47910  -15.33503   -6.84098
      H1    -5.18224  -14.79965   -6.45926
       H    -4.81916  -14.68869    1.18374
       O    -4.39141  -14.46138    0.33183
      H1    -3.89940  -15.24487    0.19219
       H    -6.29713  -17.34703   -4.06898
       O    -6.23290  -17.07470   -3.07171
      H1    -6.25788  -16.13531   -2.99348
       H    -6.37750   -7.13569   -4.29069
       O    -6.66354   -7.22914   -5.22654
      H1    -6.78666   -8.18192   -5.34059
       H    -7.84158   -8.81270   -1.26421
       O    -7.14196   -8.83316   -0.52090
      H1    -6.27965   -8.81421   -0.90092
       H    -7.93892  -10.52094   -5.16443
       O    -7.08159  -10.22613   -4.87670
      H1    -6.92723  -10.84248   -4.14319
       H     0.21733  -10.27104   -1.34848
       O     0.20543  -10.97227   -0.70258
      H1     0.49450  -10.50138    0.05405
       H    -1.87916  -16.07890   -0.54907
       O    -2.57204  -16.56039   -0.10206
      H1    -2.39740  -17.41615   -0.51128
       H    -2.80568  -16.31769   -6.41464
       O    -2.11127  -16.47659   -5.81065
      H1    -1.45553  -16.91871   -6.31766
       H    -3.44769  -11.41126   -8.43782
       O    -4.07544  -12.04267   -8.79950
      H1    -4.91887  -11.58716   -8.64193
       H    -2.06315   -9.89619   -8.62197
       O    -1.60219  -10.54615   -8.13605
      H1    -1.80656  -10.28921   -7.17180
       H    -5.13116  -14.05502   -2.41447
       O    -6.02484  -14.32247   -2.04636
      H1    -5.85445  -14.64693   -1.16659
       H    -8.45981   -9.30421   -3.34301
       O    -9.07875   -8.82606   -2.78486
      H1    -9.59804   -8.21856   -3.28362
       H    -7.91116  -11.67663   -2.02855
       O    -7.04563  -11.52248   -2.49916
      H1    -6.59265  -12.30218   -2.16626
       H    -6.04082  -11.46173   -0.33104
       O    -5.19695  -11.76620    0.09557
      H1    -4.98915  -12.59217   -0.30044
       H    -1.63118  -13.51947   -0.92748
       O    -1.13185  -14.27602   -1.18862
      H1    -0.24498  -14.22880   -0.76069
       H     0.01628  -16.49141   -4.03633
       O     0.44391  -15.67742   -4.25039
      H1     0.01617  -15.08587   -3.71393
       H    -4.58788   -7.99364   -6.06798
       O    -3.74385   -8.06492   -6.51402
      H1    -3.43605   -7.09831   -6.51928
       H    -7.10859  -13.14251   -5.55764
       O    -6.26091  -12.96768   -6.03963
      H1    -6.32597  -12.00848   -6.18181
       H    -1.86276   -9.82311   -4.37418
       O    -1.47398   -9.46066   -5.20426
      H1    -2.27939   -9.08389   -5.62713
       H    -3.66785  -10.43717   -2.94841
       O    -2.94501  -11.00074   -3.16418
      H1    -2.59697  -11.21631   -2.23954
       H    -3.04920  -11.67523    0.24465
       O    -2.39350  -11.88512   -0.37278
      H1    -1.56202  -11.44435   -0.09960

