102
frame 2 | Written by MDAnalysis XYZWriter (release 2.4.3)
       H     8.64000   17.84377   11.46933
       O     8.83819   16.98099   11.07874
      H1     8.11582   16.45881   11.39938
       H    11.46360   13.13438   15.77586
       O    11.07818   12.49027   16.48050
      H1    10.97819   13.01275   17.31176
       H     8.16394   13.05594    7.92983
       O     7.40675   13.62699    7.81390
      H1     6.82611   13.21964    7.17753
       H    17.55299   10.92196   11.63185
       O    17.86193   10.82782   12.55378
      H1    18.53823   10.11433   12.60571
       H    10.77760    9.64834   13.89184
       O    11.18855    9.89233   13.06108
      H1    10.88065    9.25135   12.39777
       H    12.38866   11.67130    7.88951
       O    11.48733   11.51444    8.10020
      H1    11.22057   12.16555    8.77585
       H    14.38459   15.98300    7.28566
       O    14.35215   15.51439    8.16832
      H1    15.29378   15.39916    8.50101
       H    14.52428   10.21610    8.78987
       O    14.59532    9.81640    9.67660
      H1    14.47272    8.86529    9.65211
       H     6.38974   15.16647   12.56555
       O     7.27417   15.57005   12.78384
      H1     7.76430   14.98425   13.40699
       H    13.98862   10.23967   11.09009
       O    13.68289   10.48958   11.99111
      H1    12.79370   10.04445   12.09692
       H    10.21076   16.33985   10.15972
       O    11.00924   16.17836    9.58475
      H1    11.75590   16.28068   10.21333
       H    11.02718   17.93505    9.20120
       O    11.18550   18.86944    8.80016
      H1    10.30645   19.31551    8.85781
       H    16.73171   14.27785    8.77813
       O    16.79159   15.18353    9.08220
      H1    16.86604   15.09205   10.05959
       H    11.41215   14.83052   14.52893
       O    11.84013   13.94815   14.49119
      H1    12.13185   13.78307   13.56845
       H     9.67563   14.36311   14.79138
       O     9.02050   13.82226   14.32311
      H1     8.57591   13.47480   15.06562
       H    16.99646   11.88704    7.95463
       O    16.63472   12.46106    7.22036
      H1    17.09323   12.23995    6.41816
       H    13.47393   13.73232    6.01864
       O    12.59815   14.04741    6.24869
      H1    12.59816   14.39488    7.16230
       H    16.75447   10.30416   13.75485
       O    15.94120    9.83465   14.02810
      H1    15.28071   10.09806   13.38892
       H    12.29762    7.87353   11.95008
       O    11.68952    7.91639   11.18879
      H1    11.05374    7.19338   11.25790
       H     7.36996   12.09545   10.22253
       O     8.12534   11.50929   10.12599
      H1     8.67064   11.83810   10.83468
       H    14.87520   11.68763    7.25561
       O    14.13865   11.13806    7.41432
      H1    14.17284   10.54196    6.67148
       H     9.73753   12.82933   12.98087
       O     9.80583   12.26252   12.12929
      H1    10.42601   11.55731   12.36628
       H    10.49877   11.79317    6.92169
       O     9.82621   11.85024    6.22578
      H1     9.92932   12.66558    5.67189
       H    15.31859   15.83286   12.16291
       O    14.38501   15.68496   12.41940
      H1    14.34164   14.75057   12.42233
       H     8.98068   10.49988    7.26754
       O     8.22718   10.13753    7.76693
      H1     8.16504   10.77127    8.52474
       H    11.14677   14.30030   10.05295
       O    11.29740   13.38470   10.17360
      H1    10.70416   13.09550   10.88332
       H    17.81005   10.23475    9.09671
       O    17.22556   10.92627    9.45761
      H1    16.45265   10.33706    9.68599
       H    13.79748   16.89113   11.25383
       O    13.57463   17.31515   10.36563
      H1    13.83772   16.72344    9.63474
       H    14.84664   15.81935   14.25214
       O    14.58554   15.61703   15.18756
      H1    13.74840   15.19148   14.96506
       H     7.01898    9.48020   12.30234
       O     7.60912    9.18215   11.56195
      H1     7.86590    9.96269   11.09412
       H    15.61770   14.55739   16.02861
       O    16.18145   13.78840   16.28275
      H1    16.20951   13.64410   17.23923
       H    12.44692   13.26512   11.64683
       O    13.11898   13.12639   12.34082
      H1    13.18138   12.15103   12.19957
       H    10.08436   17.22278   13.75672
       O    10.40566   16.50167   14.31161
      H1    10.03752   16.78753   15.14969
       H    17.20065   16.40275   11.67802
       O    17.14842   15.47566   11.64448
      H1    17.61447   15.15220   12.51390

