102
frame 0 | Written by MDAnalysis XYZWriter (release 2.4.3)
       H   -16.72676   12.44075   17.73375
       O   -16.57348   11.49983   17.57084
      H1   -16.17452   11.15121   18.39067
       H   -15.62524    7.98817   11.31917
       O   -15.55898    7.56512   12.15701
      H1   -16.34479    7.13366   12.33320
       H   -17.31041    5.75332   19.27739
       O   -17.87124    6.25192   19.84765
      H1   -17.62776    7.21563   19.72425
       H    -9.98113    5.34535   12.97821
       O   -10.62471    5.48232   13.64095
      H1   -10.50028    6.44194   13.79760
       H    -9.93888   13.22973   15.38106
       O    -9.46397   13.68788   14.71454
      H1    -9.12051   14.47646   15.09929
       H   -11.76469    8.33872    9.81755
       O   -11.22224    8.74535   10.48871
      H1   -11.70375    8.47562   11.32651
       H   -11.37075    7.36927   18.62871
       O   -10.78641    7.90552   19.17563
      H1   -10.25976    7.32225   19.73503
       H   -12.50486    3.87841   13.84016
       O   -12.71440    3.02889   14.15176
      H1   -12.09462    2.80748   14.79129
       H   -12.02624    8.51108   13.51351
       O   -12.54992    8.55008   12.71025
      H1   -12.92139    7.65221   12.54179
       H   -14.63057   11.53299   16.64535
       O   -13.76220   11.31063   16.25252
      H1   -13.87227   11.24914   15.27044
       H   -13.87888    5.24303   11.37488
       O   -13.98749    4.72683   10.56929
      H1   -14.15779    3.87802   10.94098
       H   -13.51750    5.75139   13.94538
       O   -13.08107    5.73293   13.04106
      H1   -12.11006    5.61495   13.26169
       H   -17.68793    4.98537   15.20450
       O   -16.90388    4.59271   14.74031
      H1   -16.94725    3.74078   15.14838
       H   -15.17255    2.51265   16.53995
       O   -14.39786    3.05678   16.82475
      H1   -13.86045    3.20759   16.07651
       H   -15.93477    9.04206   13.41818
       O   -15.90654    9.51204   14.27656
      H1   -16.52732   10.23888   14.29391
       H   -10.70498   11.46904   17.28982
       O   -11.05020   12.29049   16.84688
      H1   -11.95004   12.01478   16.55934
       H   -12.82684   12.26931   12.31928
       O   -12.05983   12.90647   12.37696
      H1   -12.34694   13.64246   11.82852
       H   -10.89766   14.67125   14.47926
       O   -11.83581   14.91029   14.53318
      H1   -12.29898   14.15347   14.12227
       H   -13.70755    9.58896   16.25365
       O   -13.90358    8.70057   15.99694
      H1   -14.71243    8.81711   15.50946
       H   -17.37439    8.47011   14.99486
       O   -18.19485    8.08794   15.37885
      H1   -18.37020    8.83729   16.03765
       H   -12.95148    5.77143   16.95808
       O   -12.15195    6.21966   17.29731
      H1   -11.35171    5.71190   17.00454
       H   -11.48838   13.36638   18.15797
       O   -11.76942   13.79872   18.98397
      H1   -11.08500   14.44925   19.20539
       H   -14.46260   10.26997   13.70154
       O   -13.77356   10.83170   13.33765
      H1   -13.07025   10.19522   13.08272
       H    -8.79184    8.70441   16.91359
       O    -8.44548    7.88191   16.52103
      H1    -9.17531    7.28877   16.30788
       H    -9.17310   10.67818   13.84449
       O    -9.29737   10.28388   14.72869
      H1    -8.60092    9.63248   14.88707
       H   -15.26793    4.84289   17.76464
       O   -15.42617    5.31725   18.51204
      H1   -14.79441    4.96566   19.13401
       H   -18.78291    6.23694   11.51055
       O   -18.37574    6.96925   11.91111
      H1   -18.73801    7.13796   12.75468
       H   -18.17033   10.77102   17.18931
       O   -19.12776   10.55590   16.97835
      H1   -19.47586   11.26841   17.55211
       H   -11.28756    7.97334   15.69588
       O   -10.85795    8.21343   14.87867
      H1   -10.37038    9.08845   15.04257
       H   -15.02673    8.79122   17.85093
       O   -15.62690    8.17194   18.31735
      H1   -15.16455    7.34361   18.39458
       H   -14.15014    6.85961   15.51560
       O   -14.13827    5.89672   15.49205
      H1   -15.01208    5.65234   15.80839
       H    -8.76112    4.68059   16.44780
       O    -9.59947    5.20127   16.38916
      H1    -9.96762    4.96799   15.50055
       H   -10.39956   10.50613   11.56981
       O   -10.10482   11.08542   12.27684
      H1   -10.86202   11.78068   12.39199
       H    -9.64567    9.05633   18.75406
       O    -9.24652    9.81737   18.26138
      H1    -8.59710   10.15981   18.91161

