102
frame 3 | Written by MDAnalysis XYZWriter (release 2.4.3)
       H    17.61555  -11.98654   15.30333
       O    17.64367  -12.59239   16.08891
      H1    16.71842  -12.85097   16.28115
       H    12.46055   -6.43833   10.11577
       O    11.48859   -6.60716   10.09780
      H1    11.02344   -5.75877   10.15672
       H    10.25103   -3.84922   16.37892
       O    10.26205   -4.16096   17.31681
      H1    10.17232   -5.13815   17.30038
       H     7.61964   -9.86304   12.54759
       O     7.88492  -10.06106   11.61121
      H1     8.69378   -9.52645   11.54900
       H    12.95219  -13.36068   15.32271
       O    12.40646  -13.59216   16.08572
      H1    11.56715  -13.81356   15.64605
       H    14.82434   -6.39672   11.08287
       O    14.33951   -6.60177   10.28686
      H1    14.76903   -6.15076    9.54491
       H    13.15350  -10.84088   15.69121
       O    12.62632  -10.28728   15.08720
      H1    12.08683  -10.83343   14.48388
       H    14.56648  -12.29639   17.33434
       O    14.09237  -11.50316   17.10286
      H1    14.73413  -10.80127   17.32245
       H     8.87740   -7.89770   14.53253
       O     9.62722   -7.47354   14.06903
      H1     9.84954   -8.18810   13.42463
       H    12.84917   -7.08261   15.23238
       O    12.02828   -6.71923   15.50418
      H1    11.41209   -7.11930   14.91185
       H    13.04816   -3.65093   13.74259
       O    12.41260   -3.08065   13.31534
      H1    12.56240   -3.16701   12.33484
       H    11.69107  -10.21538   16.76729
       O    11.42275  -10.14296   17.70487
      H1    11.52651  -11.02726   18.02650
       H    12.60164   -8.92633   18.50256
       O    13.26569   -8.41167   19.01916
      H1    12.91450   -7.69948   19.57320
       H    14.54826   -8.24515    9.57397
       O    14.56108   -9.20386    9.46544
      H1    13.83821   -9.42798    8.83871
       H    10.84941  -12.96697   18.83414
       O    11.75838  -12.75452   18.66902
      H1    11.95370  -12.97517   17.74951
       H    14.92603   -8.36744   15.55780
       O    14.22716   -8.20182   14.84953
      H1    13.69944   -8.99710   14.75839
       H    10.16545  -11.74924   11.98763
       O    10.81956  -11.24339   12.54090
      H1    11.63070  -11.48130   12.04129
       H    10.80486   -9.48202   11.68035
       O    10.23401   -8.71789   11.61562
      H1    10.74809   -7.93454   11.31497
       H     8.94333   -7.17333   17.54778
       O     9.83955   -6.75645   17.80143
      H1    10.49032   -7.25852   17.28855
       H    14.70604  -13.27688   14.10003
       O    13.78487  -13.21910   13.83870
      H1    13.72022  -12.51108   13.27337
       H    16.42718   -9.41971   18.14338
       O    15.77959   -9.10542   17.50651
      H1    15.14421   -8.57865   17.98620
       H    15.30813   -7.38256   13.45865
       O    15.85239   -6.87101   12.78714
      H1    15.68514   -5.93604   13.01287
       H    15.50903  -13.96581   18.22349
       O    15.30577  -13.95266   17.31442
      H1    14.50653  -14.49072   17.12154
       H    12.16772   -4.09085   17.80271
       O    13.10663   -4.04379   17.64181
      H1    13.27728   -3.77260   16.70490
       H    14.31464  -11.88564   11.41212
       O    13.38613  -12.14955   11.45364
      H1    13.07301  -12.16360   10.55751
       H    12.53644  -15.71794   12.56194
       O    13.48474  -15.62486   12.60374
      H1    13.61556  -14.63310   12.75525
       H    15.65971   -5.78142   17.05212
       O    15.16240   -5.76278   17.85570
      H1    14.37824   -5.27868   17.59085
       H    17.46078   -9.63124   14.21290
       O    17.42718  -10.57870   13.93094
      H1    16.69282  -10.57304   13.35470
       H     8.20894   -9.40140   17.05325
       O     8.65104  -10.28451   17.01983
      H1     9.59512  -10.06554   17.19201
       H    17.68267   -6.32028   15.55451
       O    17.21181   -5.45427   15.69389
      H1    17.93088   -4.77627   15.60675
       H    18.67334   -7.51899   11.59369
       O    18.55828   -6.94808   12.35995
      H1    17.59078   -6.86825   12.50522
       H    18.90106   -7.85557   14.49102
       O    18.58484   -8.07332   15.38031
      H1    19.36825   -8.48314   15.81871
       H    16.26189   -4.41592   14.52355
       O    15.56039   -4.21402   13.88823
      H1    15.50730   -3.25094   13.98480
       H    16.99180  -10.38575   11.10710
       O    16.12832  -10.85606   11.23330
      H1    15.45783  -10.23000   11.00170

