102
frame 4 | Written by MDAnalysis XYZWriter (release 2.4.3)
       H    16.03257   12.96770    3.66719
       O    15.93162   12.86142    2.70382
      H1    16.80013   12.90675    2.33433
       H    16.67277    5.82897   11.38251
       O    15.99477    6.51973   11.06158
      H1    15.10800    6.31901   11.44305
       H    19.39237   12.37296    2.04445
       O    18.65246   12.78988    2.38967
      H1    18.36036   12.36348    3.19729
       H    18.22896   11.20951   11.35830
       O    18.70881   11.44853   12.18080
      H1    18.91427   10.70175   12.72529
       H    19.01959    7.00133    8.35973
       O    18.89807    6.15556    7.75943
      H1    18.61458    5.31401    8.17453
       H    12.25329   11.64527    9.05334
       O    11.34089   11.29801    8.99040
      H1    10.87973   11.87994    9.68880
       H    14.67227   16.40961    7.61802
       O    14.95567   16.90458    8.40886
      H1    15.75091   16.42745    8.75698
       H    15.41212   10.25858    9.35069
       O    15.45758    9.91851   10.23914
      H1    15.50105    8.98110   10.10135
       H    13.77199   10.31468   11.05367
       O    13.03774   10.74627   11.51638
      H1    12.28035   10.49604   10.91211
       H    17.91286    9.26970    2.16586
       O    18.23561    9.65312    2.99059
      H1    18.89567    9.05053    3.37859
       H    17.09132    9.37968    4.42795
       O    16.52637    9.38726    5.21075
      H1    16.25487    8.50035    5.38494
       H    17.08965   14.51936    9.19141
       O    17.06248   15.45628    9.39773
      H1    16.87335   15.44183   10.30665
       H    17.36647   11.03525    5.55726
       O    17.56577   11.96444    5.73585
      H1    18.43314   11.89500    6.14726
       H    15.59254    6.76717    6.51618
       O    15.78570    6.84452    5.53704
      H1    14.90924    6.79794    5.14831
       H    13.27487   16.63764    5.71027
       O    14.18366   16.76029    5.76686
      H1    14.29341   17.71963    5.63836
       H    17.42682   12.12648    8.73755
       O    16.88952   12.85156    8.30613
      H1    16.94685   12.65939    7.37135
       H    14.17170   13.08452    5.97537
       O    13.25180   13.01163    5.79162
      H1    13.11061   12.10162    5.57232
       H    18.33459   14.21241   13.57921
       O    17.66718   13.47672   13.58001
      H1    18.21667   12.71176   13.19520
       H    14.55925   10.65998   14.20158
       O    14.23296    9.79061   13.89923
      H1    13.58535   10.03065   13.20892
       H    18.13769    8.78455   14.18881
       O    18.95390    8.88831   13.62918
      H1    19.68500    8.91260   14.21803
       H    15.04767   12.09342    8.49853
       O    14.42504   11.42133    8.35470
      H1    14.48529   11.12183    7.46038
       H    13.51974    9.33384    6.56796
       O    13.99096    9.94277    6.00445
      H1    14.85269    9.59326    5.80330
       H    19.08638    6.49690   11.64700
       O    19.61456    7.29205   11.72323
      H1    19.36201    7.70046   12.53819
       H    15.19608   16.01260   12.91625
       O    14.30394   15.78778   13.14892
      H1    14.12842   14.97635   12.70821
       H    18.40520    9.90062    9.43584
       O    17.95814   10.73954    9.81366
      H1    17.04236   10.52998   10.06727
       H    17.85628   16.63753    4.70445
       O    18.36755   15.75495    4.69677
      H1    19.15862   15.91208    5.19014
       H    18.51816   16.31648    8.96836
       O    19.25248   16.80646    8.65752
      H1    18.90120   17.61887    8.31313
       H    13.78481   16.45927   11.53903
       O    13.34573   16.86999   10.79643
      H1    13.87527   16.73730   10.03415
       H    15.37170   15.25209    5.08184
       O    15.83275   14.41124    5.13627
      H1    16.77676   14.67848    4.97919
       H    15.64892    8.90693   14.14432
       O    16.41457    8.31611   14.34031
      H1    16.42489    7.64222   13.62338
       H    15.93865   12.54851   14.82603
       O    15.25836   12.02188   15.23695
      H1    14.59231   12.67012   15.58122
       H    12.12874   13.61409   11.77437
       O    12.94201   13.55857   12.32402
      H1    12.99396   12.57873   12.17141
       H    13.89384    6.69990    8.90347
       O    14.80160    6.95021    8.63271
      H1    15.32612    6.42473    9.26458
       H    17.05624   16.91898   12.61354
       O    16.70972   16.10210   12.13167
      H1    17.12119   15.41867   12.60143

