102
frame 8 | Written by MDAnalysis XYZWriter (release 2.4.3)
       H    -6.32800  -16.89236   10.02289
       O    -5.88499  -16.39435    9.36692
      H1    -5.26541  -16.99677    8.93990
       H    -1.78799  -18.20508   16.76526
       O    -0.99944  -18.70366   16.53415
      H1    -0.48752  -18.74098   17.35454
       H    -5.94667  -17.41617   12.91372
       O    -6.19307  -16.46300   12.91066
      H1    -5.46750  -15.94954   12.45173
       H    -6.17121  -16.07157   18.49903
       O    -6.21982  -15.11439   18.69914
      H1    -7.12678  -14.89411   18.28996
       H     2.98151  -19.22635   12.83792
       O     2.48868  -18.59698   13.38818
      H1     3.06354  -18.44646   14.17255
       H    -8.87382  -14.50462   16.53312
       O    -7.95152  -14.68916   16.76497
      H1    -7.49445  -14.48807   15.88530
       H    -6.20807  -19.78691   14.47585
       O    -6.64180  -19.08840   13.98340
      H1    -7.11982  -19.49189   13.27986
       H    -7.11564  -13.80041   13.97903
       O    -6.40898  -14.06023   14.65616
      H1    -5.93682  -14.78748   14.12348
       H    -3.54772  -13.35465   17.45217
       O    -3.78271  -14.27975   17.42344
      H1    -4.68797  -14.31639   17.72415
       H    -1.28286  -16.67817   18.80646
       O    -2.16169  -16.95720   18.47495
      H1    -2.75751  -16.21773   18.36735
       H    -0.24964  -14.05614   19.26082
       O    -0.27398  -13.09955   19.21195
      H1     0.47503  -12.88948   18.59364
       H    -4.66076  -15.58901   10.63848
       O    -4.56461  -15.06270   11.46547
      H1    -3.73865  -15.18841   11.96456
       H    -1.30127  -18.03952    9.53659
       O    -1.97798  -17.40715    9.78431
      H1    -2.17899  -17.34037   10.73577
       H    -8.12212  -16.35108   15.34852
       O    -8.70352  -16.99505   14.87223
      H1    -7.99005  -17.50440   14.40832
       H    -9.10393  -17.12565   10.68184
       O    -9.56244  -17.84043   10.21585
      H1    -9.18223  -17.87819    9.34596
       H     3.34725  -19.69619   16.71929
       O     3.87295  -19.04295   16.22436
      H1     4.27414  -18.43565   16.88581
       H    -4.90366  -19.56499   17.80752
       O    -4.96755  -19.57738   18.74527
      H1    -4.13547  -19.15752   19.03339
       H    -4.09645  -18.78112   15.45348
       O    -4.39993  -19.48142   16.07796
      H1    -3.76476  -20.21037   15.95298
       H    -4.25114  -18.95582    8.14433
       O    -4.32660  -18.57470    9.02080
      H1    -3.46941  -18.29571    9.30477
       H     0.57303  -16.37149   20.16282
       O     0.15220  -15.92307   19.44370
      H1     0.89958  -15.81765   18.83537
       H   -11.09776  -14.80629   14.38768
       O   -11.20816  -15.70454   14.41462
      H1   -10.34461  -16.09167   14.63089
       H    -0.69591  -13.48408   12.31314
       O    -1.31147  -13.36415   13.08427
      H1    -2.10821  -12.92753   12.69289
       H    -1.00618  -20.14930   12.83568
       O    -1.62047  -19.45762   12.50499
      H1    -1.34673  -18.72309   13.04025
       H    -9.86007  -17.14724   18.01600
       O    -9.45112  -17.99310   17.83682
      H1    -9.60040  -18.10998   16.90817
       H    -7.51057  -14.68905   11.06170
       O    -8.07828  -15.48175   11.17833
      H1    -7.53072  -16.03784   11.75623
       H     1.23321  -14.38893   15.01584
       O     0.65879  -14.77099   15.71109
      H1     0.10816  -15.46953   15.39144
       H     0.44267  -18.70514    8.11856
       O    -0.10257  -19.13943    8.73472
      H1    -0.29944  -19.97714    8.29363
       H     2.05768  -16.99031   17.70939
       O     2.19078  -16.08277   17.47460
      H1     1.53794  -15.82612   16.80551
       H    -5.95551  -11.94379   18.82833
       O    -6.27509  -11.76478   17.89573
      H1    -6.29730  -12.64784   17.46758
       H    -6.39802  -18.59720   18.77568
       O    -7.01425  -17.84298   18.89130
      H1    -7.75049  -18.01574   18.24905
       H    -3.66442  -15.75235   15.90231
       O    -3.81580  -16.25657   15.09138
      H1    -3.34057  -15.74082   14.44511
       H     1.27662  -18.99923   19.12383
       O     1.09578  -18.69536   18.22122
      H1     1.29246  -19.39912   17.60173
       H     0.85156  -17.64062   13.83093
       O     0.03572  -17.21426   14.11360
      H1    -0.09887  -17.52697   15.03705
       H    -1.74380  -14.80870   13.03808
       O    -2.14894  -15.69316   12.98915
      H1    -1.35116  -16.22171   13.10623

