102
frame 11 | Written by MDAnalysis XYZWriter (release 2.4.3)
       H    12.51638    5.74541   16.39053
       O    12.00595    5.07487   16.85241
      H1    11.40056    4.67523   16.19296
       H    11.20454    6.01825   19.62662
       O    10.87244    5.21023   19.22196
      H1    11.20217    5.24324   18.33283
       H    16.72344    7.09038   11.94602
       O    15.76630    7.17559   11.99346
      H1    15.38079    6.30828   12.28122
       H     9.88913    8.86536   18.83727
       O     9.41098    8.39600   18.09838
      H1     8.55272    8.16148   18.38754
       H     9.07991    5.10563   18.86595
       O     8.10186    4.84821   18.82409
      H1     8.01345    3.94320   19.11242
       H     8.05715    4.31286   17.26933
       O     8.11516    3.73213   16.44098
      H1     7.14849    3.57161   16.23487
       H     8.78061   11.30974   18.03920
       O     8.10045   10.67377   17.99894
      H1     8.60277    9.85128   17.94865
       H    10.34108    3.67288   14.57870
       O    11.11671    3.24700   14.86408
      H1    11.58224    3.13825   14.04894
       H    13.78386    1.86079   13.03288
       O    12.95567    2.31508   12.91598
      H1    12.43032    1.63699   12.46440
       H    16.27252    3.86812   14.06124
       O    15.94223    4.42945   14.75537
      H1    15.48104    3.89123   15.44246
       H     9.83870    7.66891   16.49284
       O    10.10987    7.52375   15.56137
      H1     9.74099    6.65241   15.30084
       H    14.08513    9.67215   13.73996
       O    13.15889    9.82047   14.00427
      H1    12.70774    9.80468   13.14399
       H     6.65712    6.03405   16.81025
       O     7.24481    6.33888   16.07190
      H1     7.72171    5.54048   15.88817
       H    14.67163    6.74298   18.42986
       O    15.49926    6.45544   18.02314
      H1    15.66454    6.99494   17.27376
       H     6.43756    2.19448   15.14447
       O     5.83458    2.99721   15.08204
      H1     5.02859    2.76330   15.52246
       H     6.30590    4.08716   13.67879
       O     6.53556    4.36319   12.76236
      H1     6.34288    5.28294   12.63535
       H    10.86061    7.51448   10.93629
       O    10.68587    8.35045   10.44208
      H1     9.75024    8.54965   10.56885
       H    15.44887    1.61048   19.09783
       O    15.98781    2.36272   18.84616
      H1    15.73588    2.52420   17.94421
       H    10.47324   -0.00439   16.83714
       O    11.19793   -0.67638   16.79858
      H1    10.82490   -1.47365   16.43676
       H    13.64452    0.78292   17.98022
       O    13.53939    0.68187   18.95452
      H1    13.85301   -0.13880   19.30256
       H     7.02744    0.40953   14.01700
       O     7.68691    0.77362   14.64901
      H1     7.55622    0.24759   15.47381
       H    14.26418    5.26205   13.61864
       O    14.02842    5.12773   12.71660
      H1    13.83334    4.17096   12.67386
       H     9.77695    5.39721   13.40745
       O     9.12924    5.21162   14.10871
      H1     8.29207    5.14448   13.68651
       H     9.78463    1.45789   18.26754
       O     9.50952    1.37275   17.35322
      H1     9.01505    2.15640   17.05001
       H    14.04373    2.03241   16.11944
       O    14.15661    2.94119   16.47299
      H1    13.32397    3.37184   16.52195
       H    12.77156   -0.13521   16.01607
       O    13.73232    0.20132   16.06612
      H1    14.03386    0.22976   15.10289
       H    11.67003    7.44799   15.02569
       O    12.40938    7.30209   14.40867
      H1    12.65938    8.23243   14.17813
       H    11.27834    5.17267   11.11360
       O    11.15319    5.75609   11.91532
      H1    12.03673    5.63008   12.26891
       H    16.66480    6.35753   15.31114
       O    16.85943    7.27180   15.62008
      H1    16.56492    7.86740   14.92578
       H     5.71221    8.65758   14.61913
       O     6.66586    8.86584   14.68849
      H1     7.03270    8.05391   15.12950
       H     9.43398    0.61813   14.36819
       O    10.36800    0.57015   14.07092
      H1    10.67441    1.41627   14.40483
       H    11.24971   11.42604   14.95152
       O    10.45006   10.93839   14.82829
      H1    10.67710   10.03406   15.11727
       H    14.05523   10.30107   20.11071
       O    13.79816    9.75295   19.33846
      H1    13.75407    8.80871   19.63757
       H     7.90754    4.75490    9.76473
       O     8.57103    4.23460   10.23012
      H1     8.06812    4.17825   11.03516

