102
frame 10 | Written by MDAnalysis XYZWriter (release 2.4.3)
       H     6.63031    9.86380  -12.77899
       O     7.51538   10.13357  -12.40844
      H1     7.24656   10.47914  -11.47226
       H    13.11173    9.43661  -13.18336
       O    13.44453   10.28817  -13.46327
      H1    13.81317   10.68066  -12.59954
       H    12.98723   12.95055  -16.90356
       O    13.80620   13.41335  -16.93897
      H1    14.34202   13.07606  -16.19876
       H     9.25479   13.31579  -11.27726
       O     8.74647   13.55278  -12.03850
      H1     8.93036   12.98653  -12.81011
       H    13.34919   11.69299  -10.95822
       O    14.11381   12.04445  -11.44965
      H1    13.83542   12.92792  -11.65164
       H    15.66660   11.74521  -12.07246
       O    16.46256   11.44597  -12.56684
      H1    17.20285   11.61586  -11.97668
       H    14.71238    8.56912   -9.04923
       O    14.29733    8.43795   -9.91583
      H1    13.76146    9.25644  -10.02654
       H    13.83455    6.79754  -16.08911
       O    14.48457    7.26754  -16.59439
      H1    15.20763    6.63400  -16.77668
       H    12.77489    3.52809  -12.04967
       O    13.20467    4.33458  -12.30497
      H1    14.15024    3.96841  -12.36755
       H    10.40120   13.10446   -9.22638
       O    10.51127   12.89300  -10.14699
      H1     9.98094   12.13512  -10.30802
       H    11.57146   10.43135   -9.75002
       O    12.50499   10.62775   -9.68766
      H1    12.65184   11.13776   -8.92143
       H     6.47375    9.84946  -16.28272
       O     7.06405    9.49737  -15.57222
      H1     7.77306   10.13805  -15.55401
       H    16.82749   10.03061  -15.68888
       O    17.39548   10.72468  -15.99778
      H1    17.93797   10.43619  -16.69431
       H    12.63488    6.76200  -14.18847
       O    12.41113    6.38016  -15.09544
      H1    12.54406    5.42792  -14.97223
       H    13.98969    7.51718  -12.40670
       O    13.07100    7.67237  -12.64871
      H1    12.41414    7.34753  -12.04571
       H    15.08516    8.46663  -15.64575
       O    15.47682    9.01508  -14.95444
      H1    14.76534    9.57318  -14.64059
       H     7.87680    8.41319  -12.20186
       O     8.13314    7.48025  -12.36294
      H1     8.48569    7.47498  -13.29380
       H     9.87639   10.21958   -8.94962
       O     9.76671   10.21362   -9.88241
      H1     9.83877    9.28849  -10.17793
       H    16.08570   12.14944  -15.50869
       O    15.74398   12.78010  -14.88702
      H1    15.89292   12.33068  -14.04877
       H     9.32323   14.39922  -16.37439
       O     9.28717   13.40497  -16.48414
      H1     8.95280   13.00791  -15.62269
       H    11.66699    6.95105  -18.29217
       O    10.99933    6.64164  -17.66759
      H1    11.44564    6.41569  -16.83444
       H    16.54461    7.76296  -12.56901
       O    15.83319    7.23289  -12.92813
      H1    15.57403    7.63817  -13.73770
       H    11.96021   11.78209  -13.20578
       O    11.25079   12.39812  -13.04358
      H1    11.11347   12.36516  -12.09825
       H     9.68167    7.57533  -11.68951
       O    10.51197    7.64177  -11.09793
      H1    10.22947    6.98463  -10.43359
       H     8.25157    8.13818  -15.46282
       O     9.07059    7.65355  -15.20605
      H1     9.81224    8.18115  -15.60514
       H    16.42442    8.21658  -10.46918
       O    17.31474    8.48319  -10.88797
      H1    17.15950    9.28742  -11.44622
       H    14.27425   12.25118  -18.51787
       O    14.38021   11.92043  -19.41066
      H1    15.27182   12.15504  -19.78156
       H    15.22544    4.79729   -8.08437
       O    15.23838    5.53327   -8.68660
      H1    14.42611    5.44014   -9.18502
       H    11.80428   14.24896  -10.69162
       O    12.27694   15.06603  -10.85971
      H1    11.83655   15.45146  -11.60029
       H    13.66708    7.15247  -17.96978
       O    13.28536    7.12151  -18.85647
      H1    13.83124    6.41306  -19.20840
       H    10.72380   12.52975  -16.69340
       O    11.43184   11.89686  -16.71686
      H1    11.14891   11.21726  -17.34638
       H    13.30653    7.01662   -9.95468
       O    12.85817    6.19287   -9.89632
      H1    12.97884    5.70431  -10.72064
       H     9.77461   11.67517  -14.09125
       O     8.81325   11.59851  -14.37199
      H1     8.36780   11.07341  -13.68482
       H    15.73658    5.45234  -12.88316
       O    15.96526    4.49007  -12.91561
      H1    16.57435    4.41170  -13.61763

