102
frame 10 | Written by MDAnalysis XYZWriter (release 2.4.3)
       H   -16.47739   -5.99564    9.23214
       O   -17.12623   -6.58935    8.80014
      H1   -17.95556   -6.15718    8.74347
       H   -13.77356  -11.85183    8.50996
       O   -14.00138  -12.13816    7.61833
      H1   -14.46595  -11.36293    7.30582
       H   -17.64020   -9.81291   11.34148
       O   -17.90594  -10.72062   11.56624
      H1   -18.85614  -10.65774   11.84545
       H   -15.10677   -5.74277   14.98851
       O   -14.93403   -4.94273   14.50614
      H1   -14.74874   -4.23385   15.14072
       H   -14.26045   -9.32467   15.33062
       O   -14.48569  -10.30931   15.24904
      H1   -14.41423  -10.60248   16.14897
       H   -13.29001   -7.04346   10.24221
       O   -14.12753   -7.47435   10.00134
      H1   -14.46760   -7.75309   10.82794
       H   -15.53208   -3.53186   13.20667
       O   -15.63844   -2.81286   12.58448
      H1   -16.46495   -2.39294   12.77455
       H   -17.19158   -7.59696   10.24639
       O   -17.55064   -8.01587   11.07078
      H1   -18.47052   -7.66298   11.00523
       H   -11.18531   -8.92632   11.39509
       O   -11.33347   -9.91144   11.47024
      H1   -12.20623  -10.00956   11.05978
       H   -17.35907  -10.77541   14.17849
       O   -16.89699   -9.93039   14.38011
      H1   -16.10109  -10.26536   14.88913
       H   -17.59893  -10.22906    8.77498
       O   -17.33587   -9.51525    8.11810
      H1   -17.16981   -8.58320    8.49038
       H   -16.28661   -3.90975   11.06478
       O   -16.22428   -4.17471   10.10947
      H1   -15.29350   -4.13016    9.94983
       H   -17.17675   -8.34664   13.84365
       O   -17.36035   -7.43617   13.63589
      H1   -17.51348   -7.37780   12.63881
       H   -13.04252  -10.56038   14.14821
       O   -12.18343  -10.83072   13.82938
      H1   -12.00228  -10.30684   13.01917
       H   -15.28349  -13.13017    8.02604
       O   -15.91388  -13.76214    8.39966
      H1   -15.42070  -14.24878    9.12296
       H   -14.86880  -12.41616   12.53832
       O   -15.28485  -11.84138   11.88292
      H1   -16.17268  -11.61161   12.14113
       H   -11.09074   -6.63135   10.01234
       O   -11.24111   -7.18058   10.78423
      H1   -11.21003   -6.64854   11.59444
       H   -14.48102  -10.49839   10.62874
       O   -13.80397  -10.34346    9.96281
      H1   -13.73174   -9.37568    9.78436
       H   -15.17941   -7.38461    6.65912
       O   -14.35005   -7.69528    7.12076
      H1   -14.48252   -7.49938    8.05763
       H   -11.09606   -7.25244    6.06638
       O   -11.79556   -6.58513    6.34400
      H1   -12.69366   -6.98702    6.42134
       H   -13.96723   -6.87925   16.76595
       O   -14.56600   -7.20597   16.09236
      H1   -15.22940   -7.78658   16.54104
       H   -18.60542   -5.33390    4.53612
       O   -18.24889   -4.54549    4.16245
      H1   -17.67557   -4.70576    3.40139
       H   -17.36974  -12.73489    8.84519
       O   -18.00676  -12.10726    9.16119
      H1   -17.79177  -11.97920   10.11734
       H   -18.83908   -8.79399    7.80798
       O   -19.73298   -8.29632    7.76043
      H1   -19.54530   -7.60676    7.04051
       H   -11.39974   -5.53616    7.75217
       O   -11.24821   -5.25988    8.71940
      H1   -12.06531   -4.72357    8.83252
       H   -16.02942  -10.17992    6.98927
       O   -15.38182  -10.40040    6.29255
      H1   -14.85844   -9.60855    6.03047
       H   -18.60768  -10.43059   16.81371
       O   -19.05565   -9.85940   16.17303
      H1   -18.33558   -9.59128   15.51210
       H   -16.49223   -5.95342    5.77671
       O   -16.57432   -6.85184    5.57079
      H1   -16.36847   -7.02588    4.63993
       H   -16.77740   -3.16894    6.66268
       O   -16.44398   -3.88706    6.09330
      H1   -17.09447   -4.16167    5.47256
       H   -18.27573   -6.73553    5.88225
       O   -19.22716   -6.50595    5.88119
      H1   -19.67042   -7.18276    5.31033
       H   -17.95572   -1.83075    8.40048
       O   -16.98832   -2.02893    8.38966
      H1   -16.95110   -2.71272    9.07832
       H   -13.00856   -7.05026   12.80824
       O   -12.93792   -6.17163   13.10885
      H1   -13.62206   -6.00450   13.80661
       H   -13.53542   -3.18707    9.17435
       O   -13.66052   -3.94084    8.56090
      H1   -13.03882   -3.65109    7.83532
       H   -15.30043   -8.38608   12.83355
       O   -14.41740   -8.79962   12.65153
      H1   -14.57510   -9.75655   12.65847

