102
frame 1 | Written by MDAnalysis XYZWriter (release 2.4.3)
       H    -9.12746   -1.57939   -7.65802
       O    -9.41596   -2.13705   -8.41563
      H1    -8.73085   -2.03545   -9.14785
       H   -12.36427   -5.21067  -10.81334
       O   -13.01663   -4.69892  -10.23300
      H1   -12.50477   -4.08422   -9.63036
       H   -13.22333   -8.92572  -10.12056
       O   -13.55032   -9.31295  -10.93684
      H1   -14.50709   -9.35038  -10.90862
       H    -9.60395   -7.32784   -5.42494
       O    -9.36147   -7.52429   -4.48841
      H1    -9.80267   -6.77428   -4.03698
       H    -5.97899   -5.53828   -9.15460
       O    -6.09145   -6.34501   -8.72550
      H1    -6.73016   -6.07768   -8.03029
       H   -10.96144  -11.92162   -8.15726
       O   -10.24313  -11.90621   -7.43069
      H1    -9.99340  -12.82459   -7.33594
       H   -15.51614   -5.61628   -7.26881
       O   -16.14227   -5.15790   -6.70083
      H1   -15.87360   -4.20557   -6.66721
       H   -12.29986   -8.81803   -8.26862
       O   -12.01853   -8.09762   -8.82727
      H1   -12.85365   -7.69739   -9.03276
       H   -10.09678   -6.38940   -7.48836
       O   -10.16863   -7.27493   -7.12449
      H1   -10.75027   -7.72372   -7.72062
       H   -11.34048   -7.36675  -10.58112
       O   -11.36279   -6.71286  -11.29198
      H1   -11.56403   -7.12136  -12.10779
       H   -16.12906   -8.00193   -5.89860
       O   -15.16348   -7.98481   -5.84278
      H1   -14.99802   -8.12336   -6.80581
       H    -8.39833   -7.35617  -10.74560
       O    -8.41768   -6.89411   -9.90980
      H1    -7.49363   -7.08596   -9.57577
       H   -14.35191   -6.14858   -9.30458
       O   -14.31921   -6.59788   -8.47700
      H1   -13.78460   -6.01184   -7.91595
       H   -13.17865  -10.23356   -5.03153
       O   -13.78942   -9.80580   -4.37821
      H1   -14.40095   -9.32976   -4.98586
       H   -12.87482   -8.30097   -4.20673
       O   -12.39657   -7.51461   -3.87393
      H1   -11.48978   -7.65961   -4.14584
       H   -12.43812   -4.43883   -4.79950
       O   -12.16672   -3.99271   -3.98463
      H1   -12.88354   -3.34777   -3.78444
       H    -7.62846   -7.41833   -3.97787
       O    -6.70811   -7.23788   -3.90299
      H1    -6.26276   -7.50153   -4.71837
       H    -8.49435  -10.96692   -5.28356
       O    -7.48502  -10.98791   -5.43312
      H1    -7.22310  -11.43136   -4.61946
       H    -5.33461   -7.39773   -7.15770
       O    -5.58278   -7.79520   -6.29419
      H1    -5.77181   -8.73498   -6.57994
       H    -6.17639   -5.33527   -3.48983
       O    -6.15837   -4.51772   -3.01737
      H1    -5.42886   -3.94603   -3.30991
       H   -11.30295  -11.27034  -10.46654
       O   -11.83316  -11.41370   -9.63993
      H1   -12.24643  -12.29045   -9.88786
       H   -11.33121   -2.64347   -8.79854
       O   -12.26667   -2.78662   -8.46358
      H1   -12.90457   -2.23893   -8.97861
       H    -8.76027  -10.96994   -2.41040
       O    -9.24092  -10.18267   -2.36319
      H1    -8.94223   -9.56443   -3.03808
       H    -9.45642   -3.89236   -8.24231
       O    -9.65129   -4.83873   -8.15358
      H1    -9.23186   -5.32980   -8.83617
       H   -12.96208   -6.14279   -1.85084
       O   -13.23099   -5.22396   -1.98097
      H1   -12.80684   -4.91544   -2.77022
       H    -9.31036   -4.22547  -11.45536
       O    -8.44304   -4.63367  -11.50238
      H1    -8.55533   -5.51534  -11.09334
       H   -12.33640  -11.51576   -3.02902
       O   -11.83145  -12.22892   -3.39775
      H1   -11.03109  -11.79485   -3.63474
       H   -12.86007  -10.46520   -8.06726
       O   -13.33947  -10.11366   -7.30588
      H1   -14.25000  -10.24493   -7.50637
       H    -6.88186  -10.35519   -6.99233
       O    -6.22254  -10.16290   -7.75567
      H1    -6.78070  -10.33428   -8.51948
       H   -10.48990   -9.35320   -5.43740
       O   -10.52455  -10.28530   -5.14138
      H1   -10.49140  -10.81039   -5.94977
       H    -7.95744  -12.53134   -9.44901
       O    -7.89404  -11.54953   -9.47909
      H1    -8.58685  -11.21854   -8.85680
       H   -11.95090   -7.71605   -2.25073
       O   -12.07766   -7.85175   -1.31388
      H1   -12.43489   -8.74722   -1.34619
       H   -12.55089   -4.17410   -6.92179
       O   -12.58683   -5.07905   -6.60099
      H1   -11.70289   -5.43813   -6.90485
       H    -5.43887   -4.50035   -5.96681
       O    -5.74531   -3.82741   -6.60271
      H1    -5.12290   -3.94895   -7.32092

