102
frame 3 | Written by MDAnalysis XYZWriter (release 2.4.3)
       H    -5.93594  -16.83423   10.35913
       O    -6.25927  -16.44449    9.59164
      H1    -6.06043  -17.14969    8.89970
       H    -5.94847  -18.05512   12.58598
       O    -5.44226  -18.02972   11.79806
      H1    -4.63253  -18.38968   12.19820
       H    -6.82624  -16.36607    4.74713
       O    -6.15412  -17.13875    4.71389
      H1    -5.63542  -17.01448    3.93742
       H    -9.34108  -17.44006    7.03544
       O    -9.31369  -17.66761    6.08122
      H1    -8.62661  -18.30463    5.97444
       H    -9.36185  -17.08277    2.61255
       O    -8.49376  -17.49172    2.76144
      H1    -8.56029  -17.84542    3.62483
       H    -7.59037  -12.12813    5.97649
       O    -7.36052  -11.62575    5.14407
      H1    -8.01879  -11.88578    4.43542
       H    -8.20021  -14.28837   16.02461
       O    -7.57863  -15.00378   15.81629
      H1    -7.52720  -15.03288   14.84502
       H   -10.45064  -10.42443   10.55515
       O    -9.66809  -10.33180    9.96879
      H1   -10.02985  -10.44018    9.07591
       H    -8.40030  -12.31673   10.66814
       O    -7.89599  -12.70903   11.35691
      H1    -7.11670  -12.21042   11.51843
       H    -6.40945  -17.82221   14.55185
       O    -7.12629  -18.02353   13.89878
      H1    -7.86389  -18.47614   14.32573
       H    -7.58128  -14.54296   12.38068
       O    -7.30785  -15.17382   13.00505
      H1    -7.59497  -15.99653   12.70234
       H   -11.12538  -14.11962    9.32299
       O   -10.95501  -14.63164   10.13993
      H1   -11.09855  -15.53372   10.06963
       H    -4.38727  -17.00627    6.18889
       O    -3.56976  -16.50431    6.43045
      H1    -2.95870  -17.04338    5.85387
       H    -4.76254  -15.56975   10.19807
       O    -4.09734  -14.79045   10.28612
      H1    -3.26699  -15.25662   10.14753
       H   -11.62644  -17.67070   12.47121
       O   -11.67134  -18.26151   13.26226
      H1   -11.86231  -17.74918   14.05804
       H   -11.15201  -14.33045    4.86573
       O   -10.38184  -13.89503    4.70130
      H1    -9.68408  -14.54555    4.86572
       H    -4.43898  -14.67452   11.97910
       O    -4.60582  -14.91964   12.91221
      H1    -5.56925  -15.23951   12.81058
       H   -11.23924  -12.08559    6.53085
       O   -11.07329  -11.19880    6.14158
      H1   -10.11566  -10.94249    6.31185
       H    -7.34611  -19.02469   10.68049
       O    -8.05463  -18.38657   10.55058
      H1    -7.59028  -17.70376   10.14796
       H   -12.81316  -18.29271    7.25024
       O   -13.05801  -18.02406    8.13872
      H1   -13.41895  -18.81031    8.66217
       H    -6.49167  -19.45577    8.41193
       O    -6.10223  -18.71473    7.89941
      H1    -6.59602  -18.79980    7.08393
       H    -7.92986  -10.25341    6.05703
       O    -8.34752   -9.52691    6.61450
      H1    -8.86757   -9.07382    5.89754
       H    -3.52755  -18.34158    9.41516
       O    -3.15450  -17.48338    9.24893
      H1    -3.13803  -17.36191    8.26519
       H    -5.19564  -12.28795   12.69169
       O    -5.41803  -11.53872   12.14401
      H1    -5.81659  -10.88185   12.72181
       H    -4.01463  -14.76613    6.00748
       O    -3.98686  -13.82240    5.87982
      H1    -4.54922  -13.52746    5.13489
       H    -6.19143  -12.52400    4.31411
       O    -5.42887  -12.96836    3.79807
      H1    -5.81376  -13.84037    3.51755
       H    -8.47099  -16.28526    5.86748
       O    -8.10128  -15.42198    5.67251
      H1    -7.90617  -15.02327    6.55555
       H   -11.62912  -13.45455   11.53552
       O   -12.19658  -13.14210   12.28263
      H1   -12.75450  -13.92851   12.43920
       H    -9.51397  -15.49117    8.91288
       O    -8.70427  -15.73708    8.44584
      H1    -8.01692  -15.60511    9.13436
       H   -12.80176  -12.84428    8.20967
       O   -12.12147  -13.18557    7.65319
      H1   -12.51894  -13.88544    7.09855
       H    -4.77239  -13.70452    9.09129
       O    -4.95350  -13.09602    8.34861
      H1    -4.63872  -13.48168    7.51622
       H   -10.83726  -17.93084   10.38023
       O   -11.58159  -17.32670   10.34913
      H1   -12.08933  -17.49139    9.56266
       H    -8.01238  -13.66472    7.92408
       O    -7.50975  -12.91334    7.62758
      H1    -6.55066  -12.98958    7.89218
       H    -4.67909  -10.92564   10.51921
       O    -4.19840  -10.77753    9.74329
      H1    -4.42075  -11.58714    9.19204

