102
frame 2 | Written by MDAnalysis XYZWriter (release 2.4.3)
       H    -4.77562    4.68867    9.49634
       O    -4.76922    4.82710   10.49559
      H1    -4.62953    3.93180   10.81390
       H   -10.19920    5.48085   13.39178
       O   -11.00834    5.64221   13.90635
      H1   -11.43208    6.46094   13.54652
       H    -7.02042   10.42431   14.53310
       O    -7.00842   11.06146   15.26950
      H1    -7.35773   10.64854   16.04024
       H   -10.38729    7.77130    8.26222
       O    -9.70234    7.74949    8.93327
      H1    -9.98975    7.05509    9.50084
       H   -12.62089    8.06581   11.80645
       O   -12.60396    8.34253   10.87023
      H1   -13.49846    8.53804   10.61985
       H    -7.65213    3.22041    7.49021
       O    -7.21155    3.93024    7.02332
      H1    -7.12793    3.61988    6.14429
       H    -1.56313    5.21139   10.19451
       O    -1.87989    4.28937   10.19377
      H1    -2.84766    4.54916   10.40720
       H    -5.98945   10.66027    9.93610
       O    -6.03643   11.14602   10.77021
      H1    -6.04895   10.42297   11.42381
       H    -8.25524    1.63787   11.28643
       O    -8.79257    1.84639   12.09829
      H1    -9.67480    1.60816   11.84521
       H    -7.72379    2.46358   14.15405
       O    -6.82445    2.61016   14.41807
      H1    -6.49851    3.48961   14.12237
       H    -0.53940    7.35505   10.23818
       O    -1.41421    6.89398   10.19584
      H1    -2.08642    7.33242   10.66328
       H    -7.27622    7.46014   11.55522
       O    -6.96221    6.92084   10.85077
      H1    -6.72918    7.60722   10.16103
       H    -7.86774    4.79157   12.79661
       O    -8.79932    4.55417   12.58156
      H1    -8.82896    3.62977   12.47894
       H    -3.04648   11.16087   13.48665
       O    -3.24830   10.41274   12.93985
      H1    -2.99478   10.63193   12.02435
       H   -10.10142   12.11271   10.57898
       O   -10.83050   12.68494   10.38056
      H1   -10.68265   13.06831    9.47650
       H    -3.49914    8.30278   11.97981
       O    -3.69298    7.86068   11.15583
      H1    -3.89857    6.93075   11.40092
       H    -7.99248    3.02567    9.45664
       O    -7.86518    2.07743    9.20305
      H1    -6.95424    1.87404    9.16442
       H    -4.16374   10.62749   10.11626
       O    -3.21662   10.77555   10.19246
      H1    -2.65391   10.33465    9.53691
       H    -8.98361    8.37376   14.95199
       O    -8.76688    7.62788   15.55364
      H1    -9.61875    7.38861   15.94687
       H    -7.68467    5.75339    7.24002
       O    -7.65028    6.69538    7.18434
      H1    -8.43520    7.01864    7.66800
       H    -6.76408    7.54283   15.19430
       O    -5.91302    7.48311   14.74414
      H1    -5.24408    7.45306   15.42227
       H    -5.31135    4.27830    7.24439
       O    -4.54560    4.27323    7.81209
      H1    -3.75052    4.21098    7.33267
       H    -9.91980    9.92533   13.06919
       O   -10.14222    9.60578   13.96288
      H1   -10.43441   10.43345   14.31528
       H    -7.88150    6.81095   17.01990
       O    -7.14423    6.71556   17.68974
      H1    -6.60265    5.92398   17.47888
       H    -4.83089    8.62980    8.50879
       O    -5.34582    8.81105    9.31252
      H1    -4.80428    8.42986   10.00058
       H    -5.97968    8.87893   13.60785
       O    -6.07067    9.57045   12.97889
      H1    -5.14921    9.92641   12.84398
       H    -6.08016    6.02642   13.77981
       O    -6.18155    5.17505   13.35676
      H1    -5.81570    5.37554   12.47626
       H    -8.72564    4.61405   10.74278
       O    -8.52884    4.62710    9.77436
      H1    -7.73855    5.19901    9.80768
       H   -12.84318    8.29394   14.26194
       O   -12.19383    7.97494   13.62420
      H1   -11.50087    8.68988   13.61263
       H    -7.63899   13.23671    8.93940
       O    -7.64053   13.10572    9.91730
      H1    -7.18065   12.21785    9.98828
       H   -11.36680    5.62749   16.88273
       O   -11.14589    6.44623   16.39535
      H1   -11.23308    6.20503   15.43101
       H    -6.70966    3.40633   17.27513
       O    -6.37108    4.18394   16.75610
      H1    -6.80926    4.14480   15.89228
       H    -9.79240    9.44863   10.42521
       O   -10.37146   10.02469   10.96303
      H1   -11.25585    9.53108   11.07367
       H    -5.47740    6.93627    6.99673
       O    -4.82828    7.62168    6.92184
      H1    -3.94571    7.25364    6.99990

