102
frame 9 | Written by MDAnalysis XYZWriter (release 2.4.3)
       H     3.62764   16.33768  -10.59740
       O     2.83262   15.72878  -10.41191
      H1     2.14780   16.43201  -10.27019
       H     2.11133   15.73261  -15.07837
       O     2.85908   16.18471  -15.44752
      H1     2.88427   15.96855  -16.33729
       H     5.61971   19.14165  -14.73101
       O     4.99198   18.39253  -14.42973
      H1     4.27604   18.34760  -15.04008
       H     8.99684   13.31365  -12.39474
       O     8.21039   13.85106  -12.63691
      H1     7.91817   13.60285  -13.52623
       H     6.27907   17.69221  -16.76482
       O     5.69434   17.78585  -17.50266
      H1     6.16520   18.57836  -17.93443
       H     5.78049   16.62262  -10.38061
       O     5.21352   17.27838  -10.84440
      H1     5.77423   17.41196  -11.66405
       H     0.82148   16.82035  -13.71830
       O     0.45558   16.00385  -13.39316
      H1    -0.00237   16.18815  -12.54113
       H     9.02309   18.88845  -16.52971
       O     9.10848   19.31746  -15.63638
      H1     9.35118   20.32251  -15.87937
       H     1.33592   14.21727  -13.22856
       O     1.94778   13.50855  -13.48542
      H1     1.57627   13.11671  -14.31547
       H     4.85631   15.81751  -14.88353
       O     5.41700   15.08867  -14.86521
      H1     5.11284   14.54663  -15.57285
       H    -1.35721   17.91487  -17.41646
       O    -0.47001   17.58456  -17.24033
      H1    -0.62922   16.63196  -17.18526
       H     7.90262   19.07566  -13.33511
       O     7.58499   18.57681  -12.55399
      H1     8.10038   19.06572  -11.91217
       H    -0.94584   18.93648  -14.43948
       O    -1.60204   18.70286  -15.12365
      H1    -1.05618   18.34803  -15.83155
       H     8.94058   17.13368  -12.59549
       O     9.28885   16.54076  -13.27663
      H1     8.91242   15.67012  -13.08542
       H     9.77624   16.34391  -10.06864
       O     9.22682   17.02765  -10.51890
      H1     9.79694   17.78088  -10.68553
       H     7.70792   15.97673  -10.17595
       O     7.06913   15.23816  -10.27863
      H1     7.23327   14.99719  -11.18351
       H     4.87089   14.11712  -13.11781
       O     4.75181   13.37929  -12.48722
      H1     3.80428   13.18194  -12.45243
       H     3.14609   18.67774  -11.09726
       O     2.22429   18.54833  -11.22453
      H1     1.82229   19.42324  -11.21676
       H     8.36826   16.60787  -14.58576
       O     7.66062   16.60429  -15.32204
      H1     6.84418   16.21238  -15.09719
       H     2.56745   17.63004  -14.18155
       O     1.93921   18.24951  -13.89997
      H1     2.08603   18.39818  -12.91254
       H    10.51609   15.69860  -16.28472
       O     9.89553   15.63386  -17.02152
      H1     9.05021   15.87941  -16.54909
       H     6.28839   14.13874  -17.80441
       O     6.65812   14.33486  -18.67862
      H1     7.57484   13.98419  -18.47975
       H     6.48720   18.12968  -10.19654
       O     7.13379   18.51269   -9.55628
      H1     7.95151   17.94281   -9.66500
       H     9.12720   14.08960  -17.61843
       O     8.68043   13.17430  -17.61896
      H1     8.19902   13.13311  -16.77549
       H    12.20606   16.51514  -14.03579
       O    12.12391   16.47288  -13.10628
      H1    11.13712   16.38286  -13.05613
       H     4.18794   13.17279  -17.34616
       O     4.89041   13.17489  -16.68622
      H1     4.79365   12.31451  -16.23247
       H    10.38255   19.91263  -18.88488
       O     9.92918   19.19309  -18.50673
      H1    10.48212   18.45945  -18.72454
       H    10.57932   19.41196  -14.68859
       O    11.24200   19.42252  -13.98013
      H1    12.06499   19.22645  -14.41152
       H     2.83099   16.72492  -18.31437
       O     3.58626   16.23478  -17.92510
      H1     4.28116   16.86495  -17.77772
       H     0.86376   17.88931  -18.47968
       O     1.79351   18.04122  -18.77387
      H1     2.14902   18.70020  -18.17398
       H     8.04317   19.33186  -18.74660
       O     7.13871   19.68935  -18.75055
      H1     6.92318   19.50233  -19.69374
       H     2.91211   18.49803   -8.71330
       O     3.78645   18.16512   -8.40244
      H1     4.34055   19.00646   -8.23871
       H     5.43785   12.30156  -13.79286
       O     5.73244   11.47386  -14.25862
      H1     5.78079   10.67840  -13.69370
       H     8.71145   12.04059  -15.03438
       O     7.87726   12.53693  -15.19343
      H1     7.16785   11.95251  -14.96801

