102
frame 11 | Written by MDAnalysis XYZWriter (release 2.4.3)
       H     7.24839    9.69842   10.09134
       O     7.73189    8.90690   10.19928
      H1     7.88511    8.50553    9.32597
       H     5.72401    2.71023   11.89426
       O     5.41209    1.83417   11.68201
      H1     5.15880    1.39821   12.48307
       H     1.64514    3.26295    4.58680
       O     1.27313    3.81243    5.29762
      H1     2.00968    4.15040    5.80546
       H     6.92337    3.51825    4.52790
       O     6.81396    2.73250    5.03994
      H1     7.60310    2.55584    5.55173
       H     1.90730    3.50870   10.07441
       O     2.43263    3.93043   10.74382
      H1     2.30853    3.39041   11.50325
       H     7.37168   10.00870    4.73066
       O     8.04670    9.46509    4.27920
      H1     7.58142    9.22829    3.41269
       H     2.61480    5.78001    7.66321
       O     2.84109    4.99962    7.12555
      H1     3.71767    4.68047    7.25627
       H     5.64288    3.28256    6.35463
       O     5.04342    3.30340    7.10160
      H1     5.46628    3.93378    7.64791
       H    12.19474    4.72641    6.58146
       O    11.45756    4.49428    7.19110
      H1    10.96674    3.80790    6.71089
       H     7.52499    7.79011    4.80271
       O     7.53487    6.95953    5.28951
      H1     8.44171    6.55824    5.21952
       H     0.82613    8.46368    6.49541
       O     1.53019    8.95675    7.01214
      H1     1.33016    9.89413    6.81296
       H     9.61293    5.40979    3.90037
       O     9.95946    5.79436    4.70366
      H1    10.06234    5.04795    5.35473
       H     9.26246    2.76045    7.13175
       O     9.61205    2.68080    6.24326
      H1    10.07097    1.85587    6.16379
       H     6.74025    7.64247   12.99178
       O     6.37671    7.13123   12.23672
      H1     6.74061    7.57391   11.43789
       H     7.29271    5.55153    3.89779
       O     6.82623    4.95924    3.29172
      H1     7.47123    4.92410    2.51500
       H     7.38669    7.31430    6.81526
       O     6.93681    7.67184    7.63154
      H1     6.84216    8.64783    7.47254
       H     6.26623    5.92329    8.25444
       O     6.20981    5.09773    8.73536
      H1     5.56202    5.30136    9.43452
       H     6.30590    4.08716   13.67879
       O     6.53556    4.36319   12.76236
      H1     6.34288    5.28294   12.63535
       H    10.86061    7.51448   10.93629
       O    10.68587    8.35045   10.44208
      H1     9.75024    8.54965   10.56885
       H     6.63602   -0.49877    9.64567
       O     5.73265   -0.16335    9.74938
      H1     5.71724    0.58948   10.35864
       H     1.48902    7.39027   10.26812
       O     1.16468    7.79586   11.04533
      H1     0.71985    7.14941   11.61098
       H    11.69631    7.72752    8.92307
       O    12.22405    7.12985    8.34695
      H1    11.68771    6.34478    8.10310
       H     8.03514   10.79423    7.28761
       O     7.21350   10.69984    7.70260
      H1     7.20930   11.12441    8.56722
       H    13.00246    4.69013    9.69953
       O    12.33251    3.94799    9.83471
      H1    11.80169    4.08612    9.03573
       H     2.61254    8.69508   11.44627
       O     3.38059    9.28356   11.46546
      H1     4.05468    8.69392   11.73533
       H     0.99250    2.02441    8.00187
       O     1.59720    1.96525    8.75607
      H1     2.41595    1.87710    8.30621
       H     2.93188    7.20981    9.02569
       O     2.08508    6.96911    8.63664
      H1     1.81860    7.67457    8.03123
       H     9.77695    5.39721   13.40745
       O     9.12924    5.21162   14.10871
      H1     8.29207    5.14448   13.68651
       H     3.61614    5.34651   10.37832
       O     4.25916    6.09186   10.34178
      H1     4.43774    6.27691   11.27113
       H     4.75478    0.46779    8.62153
       O     4.10156    0.74798    7.92991
      H1     4.38353    1.54297    7.52782
       H    11.27834    5.17267   11.11360
       O    11.15319    5.75609   11.91532
      H1    12.03673    5.63008   12.26891
       H     8.55728    2.52000    9.63616
       O     8.61920    1.76257    9.09730
      H1     9.00811    1.06715    9.60359
       H     3.25700    7.86086    5.72504
       O     3.81110    7.77051    4.91079
      H1     4.38708    6.99842    5.03243
       H     7.90754    4.75490    9.76473
       O     8.57103    4.23460   10.23012
      H1     8.06812    4.17825   11.03516

