102
frame 6 | Written by MDAnalysis XYZWriter (release 2.4.3)
       H    -5.03461   -8.94280    5.64035
       O    -5.52679   -8.32028    6.13371
      H1    -6.40859   -8.66673    6.27472
       H    -2.99350   -7.82452    0.64407
       O    -3.75278   -8.12471    1.15477
      H1    -3.98634   -7.28332    1.61535
       H     0.15882   -7.66205    2.13399
       O     0.32264   -8.08557    1.26989
      H1     0.78397   -8.88656    1.62178
       H    -5.26204   -7.24303   -2.56719
       O    -5.53987   -7.63905   -1.72365
      H1    -4.88700   -7.70367   -1.02502
       H    -7.26195   -9.77052    2.04288
       O    -7.78704  -10.05802    1.26465
      H1    -8.07215   -9.30704    0.80348
       H    -8.16751   -5.85581    6.16542
       O    -8.47363   -4.93833    5.96639
      H1    -7.68141   -4.41022    5.88507
       H    -1.30595   -6.10928    6.24899
       O    -0.48188   -6.66308    6.33345
      H1    -0.90411   -7.51696    6.39822
       H     1.24529   -6.16859    3.76726
       O     0.50456   -6.76578    3.76797
      H1     0.21987   -6.93919    4.68778
       H    -1.32844   -4.40381    0.95496
       O    -1.25785   -3.94710    0.07702
      H1    -0.62136   -4.54798   -0.33708
       H   -10.37737   -5.28840    3.16371
       O   -10.32042   -4.91556    4.09853
      H1    -9.40077   -4.78073    4.38204
       H    -3.95191  -10.73956    5.54625
       O    -3.56120   -9.94234    5.12911
      H1    -3.36673  -10.06635    4.18838
       H    -5.64595   -6.72119    5.58136
       O    -5.59600   -5.69888    5.57934
      H1    -6.26138   -5.38330    4.95702
       H    -8.19851   -6.25122    0.32682
       O    -8.43242   -5.35588    0.53926
      H1    -7.97222   -5.07966    1.34128
       H    -7.83185   -1.79368    5.85246
       O    -7.50444   -2.42244    5.20199
      H1    -7.76918   -2.15793    4.33264
       H    -2.41002   -6.69453   -1.32057
       O    -2.07205   -7.52164   -1.02321
      H1    -1.19595   -7.29191   -0.69342
       H    -2.28881   -9.80724    6.56395
       O    -1.68592   -9.23086    7.02185
      H1    -1.24072   -9.73170    7.69159
       H    -4.28841   -1.35094   -0.15709
       O    -4.67407   -1.59872    0.66452
      H1    -5.64026   -1.48835    0.49931
       H    -8.80513   -7.63799   -1.41276
       O    -8.11376   -7.65538   -0.64629
      H1    -7.29567   -7.52452   -1.12073
       H    -3.32613   -9.55364    2.00024
       O    -3.06119  -10.40203    2.41663
      H1    -3.91318  -10.84632    2.46291
       H    -3.17470   -8.50525    7.82448
       O    -3.98990   -8.22779    8.24542
      H1    -4.64227   -8.12555    7.52264
       H    -4.79772   -0.74773    5.20011
       O    -4.73232   -1.74720    5.06278
      H1    -5.71892   -1.93540    4.99080
       H    -6.17812   -4.73345    2.09363
       O    -7.00311   -4.55619    2.66120
      H1    -7.08502   -3.61285    2.83877
       H    -0.71686  -10.14750    5.98734
       O    -0.04372  -10.73442    5.61645
      H1     0.63447  -10.67651    6.31313
       H    -3.23027   -4.34639    5.86440
       O    -2.69942   -5.00491    6.30991
      H1    -3.28639   -5.31721    7.03114
       H    -3.18793   -5.87769    3.21592
       O    -4.02963   -6.33712    3.34137
      H1    -4.42264   -5.78562    4.01576
       H    -2.47613   -4.27087   -1.08939
       O    -2.89470   -4.97001   -1.67378
      H1    -3.36393   -4.54615   -2.48965
       H    -0.05014  -11.60719    4.05156
       O    -0.37041  -11.94783    3.20147
      H1    -1.13141  -11.27594    3.01444
       H    -1.99543   -1.66502    2.36693
       O    -1.16026   -1.53035    1.94212
      H1    -1.09243   -2.16704    1.22070
       H    -5.18597   -3.96425    8.38970
       O    -5.05979   -4.93658    8.21699
      H1    -5.30546   -5.15134    7.26571
       H    -5.96865  -10.25636    3.63718
       O    -6.40793   -9.45887    3.42684
      H1    -5.76817   -8.75844    3.27845
       H    -4.00816   -2.27973    3.70951
       O    -3.55496   -2.81118    2.94812
      H1    -4.03085   -2.39017    2.21385
       H    -8.02906   -7.63638    7.97307
       O    -8.15273   -7.68880    7.03419
      H1    -8.55704   -8.56055    6.90740
       H    -2.24500   -4.15444    2.97458
       O    -1.73344   -4.89713    2.60692
      H1    -1.09496   -5.21731    3.27962
       H    -4.04815   -4.81461    0.21750
       O    -4.93882   -4.54208    0.53271
      H1    -5.14293   -3.76416    0.01961

