102
frame 0 | Written by MDAnalysis XYZWriter (release 2.4.3)
       H    -2.99539    2.83032   -3.14153
       O    -3.86636    2.44209   -2.99600
      H1    -4.09026    2.78442   -2.14275
       H     3.38967    3.06920  -10.86298
       O     4.08866    2.40505  -10.64528
      H1     4.47192    2.68956   -9.79761
       H     0.39929    7.66441   -3.75630
       O     0.49535    7.37677   -4.66973
      H1     0.09844    7.97448   -5.34227
       H     0.88054    3.53161   -8.30953
       O     1.16548    4.48194   -8.10110
      H1     0.33452    4.98713   -8.09328
       H    -0.15768    1.64395   -7.99827
       O     0.64512    1.91258   -8.53220
      H1     0.41658    1.65346   -9.43955
       H    -2.75949    7.17158   -6.52751
       O    -2.70447    8.11861   -6.78836
      H1    -2.94380    8.15154   -7.72939
       H     3.80373    7.65959   -5.57332
       O     3.23440    8.48061   -5.80091
      H1     2.45258    8.15942   -6.25435
       H     0.56350    6.88610  -10.07217
       O     0.23037    6.02115  -10.34305
      H1     1.04888    5.47026  -10.44092
       H    -0.49977    5.96280   -2.23598
       O    -0.33656    4.98821   -2.08448
      H1    -0.84382    4.82150   -1.23038
       H     4.28764    6.36725   -4.02789
       O     4.10038    6.01321   -4.90994
      H1     3.17758    5.69974   -4.91149
       H     4.78406    1.16932   -3.80987
       O     4.71517    0.34141   -3.25056
      H1     5.15136    0.54026   -2.42527
       H     5.57529    3.81255   -7.32618
       O     5.22973    3.24736   -8.03109
      H1     4.63183    2.64713   -7.61328
       H    -0.52365    1.21990  -11.80487
       O    -0.20318    1.82137  -11.18988
      H1    -0.82817    2.55786  -11.26747
       H     1.37027    4.49834   -6.38009
       O     1.49186    4.77604   -5.44912
      H1     0.96386    5.60101   -5.38317
       H     1.00601    3.90030   -1.93575
       O     1.79165    3.34666   -2.03154
      H1     2.15390    3.28933   -1.14283
       H     3.13009    5.21894  -10.25189
       O     2.61139    4.76522  -10.94538
      H1     2.96645    5.11733  -11.77313
       H    -0.08846    1.09595   -5.05057
       O    -0.16357    0.83648   -5.98455
      H1     0.25696   -0.00889   -5.98515
       H    -3.57139    5.20299   -6.03175
       O    -2.69069    5.53849   -5.76235
      H1    -2.32856    4.78200   -5.26089
       H     3.50897   -0.17962   -4.49754
       O     2.67288   -0.32068   -4.98696
      H1     2.47143   -1.26056   -4.98365
       H    -1.88546    6.54031  -10.19502
       O    -2.33116    7.34677  -10.50071
      H1    -1.65110    7.84228  -11.04041
       H     5.62140    5.07163   -5.54459
       O     6.30411    4.74571   -6.12538
      H1     6.89963    4.17833   -5.62336
       H    -0.26440    9.96237   -5.57871
       O    -0.34971    9.35872   -6.35496
      H1    -1.26370    9.04708   -6.43502
       H     1.39156    1.83198   -3.00229
       O     1.07537    0.96253   -3.36315
      H1     1.89463    0.67046   -3.91054
       H     5.42909    7.06687   -7.33814
       O     6.12264    7.42055   -7.86375
      H1     5.86203    8.34544   -7.79265
       H     2.96280    0.93660   -6.51873
       O     3.38153    1.41116   -7.25167
      H1     2.64338    1.61259   -7.85922
       H     5.40436    7.42969   -2.54158
       O     4.44400    7.27456   -2.62590
      H1     3.90433    8.10024   -2.73496
       H     3.72964    8.81977   -9.72603
       O     3.42323    8.78219   -8.79856
      H1     3.69464    7.88006   -8.62954
       H     3.33586    2.94177   -5.06412
       O     3.84145    2.84073   -4.24924
      H1     3.35625    3.00688   -3.37806
       H    -2.26310    4.87640   -7.35375
       O    -2.40063    4.49289   -8.26017
      H1    -2.93287    3.70981   -8.04294
       H    -0.02268    8.92514   -8.70718
       O     0.69941    8.61945   -9.27860
      H1     1.53876    8.79299   -8.86346
       H     4.37484    4.80514   -8.44767
       O     3.76684    5.56658   -8.56593
      H1     2.92157    5.16309   -8.32981
       H    -0.23140    3.68526   -4.93331
       O    -1.12073    3.74995   -4.53453
      H1    -0.88441    4.21190   -3.67906
       H     0.60406    8.45976   -1.82003
       O    -0.21530    7.99397   -2.05386
      H1    -0.88254    8.63468   -2.28868
       H    -1.91327    0.70915   -6.30451
       O    -2.85200    0.59823   -6.58152
      H1    -3.21355    1.17231   -7.28141

