102
frame 5 | Written by MDAnalysis XYZWriter (release 2.4.3)
       H    -4.44198   -8.71411    5.65286
       O    -5.15812   -8.10700    5.50309
      H1    -5.79696   -8.19422    6.20634
       H    -7.59914   -5.91086    6.98598
       O    -7.69558   -4.98105    7.17591
      H1    -7.08501   -4.44196    6.71678
       H    -9.70121   -1.41090    2.70779
       O    -8.83040   -1.76455    2.86954
      H1    -8.27095   -1.03857    3.15184
       H    -9.02635    3.59866    6.51941
       O    -8.31353    3.51947    5.80253
      H1    -7.85921    2.75792    6.12314
       H   -10.21962   -5.23252    3.61901
       O    -9.82278   -5.32009    4.47210
      H1    -8.86507   -5.27696    4.35956
       H   -10.34070   -4.64195    9.07278
       O    -9.64661   -5.28856    9.14260
      H1    -8.96787   -5.16405    8.44174
       H    -3.72671    1.31779    5.04754
       O    -4.62340    1.54714    4.75706
      H1    -5.21620    0.81109    4.76787
       H   -11.74131   -1.23276    3.75026
       O   -11.39934   -0.31799    3.61861
      H1   -10.76416   -0.05612    4.30309
       H    -8.88195   -4.53691   10.43526
       O    -8.36912   -3.91808   10.97336
      H1    -7.71478   -3.44234   10.42304
       H    -5.25706   -6.03516    5.35297
       O    -5.24778   -5.09009    5.13453
      H1    -5.99279   -4.84821    4.60355
       H   -10.17628   -3.96635    6.17827
       O   -10.90709   -3.33159    6.36062
      H1   -11.48781   -3.25707    5.55605
       H    -6.98508   -1.38168    6.17614
       O    -6.68872   -2.29908    6.11231
      H1    -7.18217   -2.57862    5.33203
       H    -7.05349    3.07304    3.55743
       O    -7.23627    2.53948    2.75203
      H1    -6.36082    2.44963    2.27318
       H   -11.00874    1.83862    7.76709
       O   -11.22439    1.08554    7.17706
      H1   -12.02190    0.74146    7.56415
       H    -5.26496   -0.23091    0.01258
       O    -5.63475   -0.37090    0.94963
      H1    -6.37312   -0.94531    0.86548
       H    -6.26185   -2.08780    9.44678
       O    -6.14799   -2.75448   10.13107
      H1    -5.38145   -2.45400   10.62800
       H    -7.57558    0.54506    4.89126
       O    -7.58272    0.31338    3.93943
      H1    -7.50137    1.15719    3.49986
       H    -6.58661    0.78462    7.44341
       O    -6.67216    1.06998    6.51675
      H1    -5.74822    1.25507    6.23556
       H    -2.13173   -3.67133    8.07223
       O    -2.50659   -4.56840    7.97797
      H1    -3.41835   -4.56601    8.33465
       H    -8.04228   -2.49505   -0.09563
       O    -8.23665   -1.70842    0.35060
      H1    -8.58078   -2.04142    1.19011
       H    -4.77004   -2.12783    5.52744
       O    -3.92113   -1.75827    5.31900
      H1    -3.27585   -2.47853    5.50715
       H    -6.60155   -3.79274    3.08296
       O    -7.22456   -3.64334    3.78620
      H1    -7.82452   -2.98218    3.40085
       H    -3.24584   -4.71403    5.15454
       O    -2.32086   -4.57861    5.34934
      H1    -2.21774   -4.65234    6.33883
       H    -3.68677   -6.16246    2.57157
       O    -4.44772   -6.75906    2.43176
      H1    -4.62457   -6.97041    3.34214
       H   -10.04634   -0.33961    7.12021
       O    -9.51991   -1.11005    7.15327
      H1   -10.00253   -1.92427    6.88948
       H    -5.52399   -4.14397    9.29779
       O    -5.02898   -4.91085    9.02266
      H1    -5.72895   -5.39759    8.48983
       H    -9.52901   -1.88951   11.17236
       O   -10.42729   -1.74106   10.78961
      H1   -10.48290   -0.83102   10.46286
       H    -3.96059   -1.79006    3.56002
       O    -3.90692   -2.10247    2.56768
      H1    -4.50106   -1.60013    2.02311
       H    -8.20103   -0.78128    8.56546
       O    -7.44737   -0.51058    9.08738
      H1    -7.73977   -0.38216   10.03777
       H    -7.53835   -7.85246    8.20500
       O    -7.31144   -7.79503    7.21630
      H1    -7.97698   -8.33185    6.76455
       H    -3.19793   -4.12582    2.35420
       O    -2.59241   -4.82450    2.52543
      H1    -1.99393   -4.60389    3.22970
       H    -5.73077    0.71321    9.46325
       O    -4.94716    1.27304    9.39915
      H1    -4.62346    1.34478   10.29774
       H   -11.25579   -2.70554    9.46844
       O   -11.77812   -3.34700    8.97288
      H1   -11.49732   -3.37830    8.04260
       H    -5.41017   -5.06991    1.87029
       O    -5.87045   -4.44733    1.25181
      H1    -5.46987   -4.51680    0.36533

