102
frame 11 | Written by MDAnalysis XYZWriter (release 2.4.3)
       H    13.68775  -13.78416    3.59253
       O    13.05281  -13.64101    2.86470
      H1    12.43316  -14.40464    2.69657
       H    19.34476  -16.75426   -2.30280
       O    18.67807  -16.11927   -2.53055
      H1    18.10414  -16.68949   -3.07670
       H    16.20442  -15.16729    0.34047
       O    16.56470  -14.47807   -0.27180
      H1    16.46355  -14.77725   -1.15668
       H    17.85589  -14.17783    0.53064
       O    18.67788  -14.00973    1.00805
      H1    18.48086  -14.07068    1.94647
       H    14.84328   -7.97150    3.76990
       O    14.18331   -7.30705    3.48441
      H1    14.59068   -6.65403    2.90336
       H    17.33950  -10.85702    0.64748
       O    17.05886  -10.23454    1.35711
      H1    16.14423  -10.52417    1.45642
       H    13.48693  -13.25859    1.35339
       O    13.92929  -12.99682    0.49937
      H1    14.70621  -13.52604    0.50456
       H    17.28172  -11.06240    3.19430
       O    17.22151  -11.23729    4.17864
      H1    16.70629  -10.48253    4.55198
       H    18.34803  -13.25686    4.17360
       O    18.61237  -14.08794    3.78547
      H1    19.52211  -14.24640    4.03370
       H    14.97690  -13.25172    5.42426
       O    15.12642  -13.29591    4.45762
      H1    15.72989  -12.52837    4.23220
       H    16.91210  -12.61066   -3.44335
       O    16.71659  -12.19904   -2.60792
      H1    15.77222  -11.92470   -2.56982
       H    13.99499  -11.07638    0.46414
       O    13.95267  -10.19881    0.82046
      H1    13.35960  -10.25886    1.53401
       H    18.17045  -18.13708    1.72774
       O    18.41064  -18.67097    2.50198
      H1    17.70972  -19.29838    2.70232
       H    14.59525  -12.16211    9.23668
       O    14.00557  -12.08712    9.98047
      H1    13.49582  -12.88123   10.03849
       H    11.78334  -12.55565    3.35552
       O    11.05625  -12.01557    3.68249
      H1    11.37666  -11.23482    4.18238
       H    16.61352   -8.50232    4.88042
       O    15.81955   -8.99496    4.65434
      H1    15.44475   -9.24360    5.56314
       H    14.69750  -18.79346   -0.68602
       O    14.68676  -17.81002   -0.78058
      H1    15.13363  -17.47623    0.05913
       H    18.44258  -10.89126    5.51784
       O    18.73173  -10.63859    6.38721
      H1    18.95549  -11.47728    6.82849
       H    14.22043  -13.93038    7.42318
       O    14.75268  -13.14358    7.15040
      H1    15.66026  -13.47027    7.19692
       H    16.87754  -16.06829    4.49810
       O    15.95457  -15.81827    4.17826
      H1    15.99271  -14.85831    4.07055
       H    17.50647  -18.84469    8.54874
       O    18.35591  -18.61108    8.12992
      H1    18.93460  -18.37616    8.87065
       H    19.35810  -17.95078    5.50830
       O    18.51716  -17.63925    5.14128
      H1    18.55750  -18.00640    4.25957
       H    18.73693   -8.37402    3.87502
       O    18.23156   -7.58240    4.20542
      H1    18.11304   -7.03482    3.43273
       H    13.87361  -18.31458    5.42525
       O    14.32478  -18.44438    6.25170
      H1    13.65394  -18.61084    6.96587
       H    17.80783   -9.37668    7.12402
       O    17.13205   -8.61219    7.29462
      H1    17.63675   -7.79835    7.30851
       H    16.73069  -16.71761    1.09091
       O    15.93003  -16.32414    1.35844
      H1    15.89636  -16.35987    2.34741
       H    17.61974  -17.04326    8.56819
       O    16.97489  -16.31186    8.78519
      H1    17.13269  -15.97079    9.68940
       H    15.30971  -16.10190    8.28348
       O    14.56924  -16.04556    7.66056
      H1    14.93282  -16.71704    7.07210
       H    13.43687  -17.42123    2.77211
       O    13.75842  -17.52967    3.64635
      H1    14.38958  -16.85131    3.76935
       H    13.32688  -17.25873    0.33467
       O    12.75887  -17.09469    1.09072
      H1    11.90796  -17.64494    1.02507
       H    17.56728  -12.36451    8.67802
       O    16.90920  -11.90203    9.18798
      H1    16.55107  -11.19055    8.66568
       H    18.11209  -17.02190   -0.72377
       O    17.95630  -17.68678    0.01081
      H1    17.80307  -18.58751   -0.41504
       H    17.76650   -7.20347   -0.28610
       O    17.05711   -7.83004   -0.42658
      H1    17.16606   -8.52526    0.20179
       H    18.10949  -12.03165   -1.29703
       O    18.55569  -11.68974   -0.51402
      H1    18.66798  -12.50487    0.00441

