102
frame 5 | Written by MDAnalysis XYZWriter (release 2.4.3)
       H    -6.46791    4.37914   11.03887
       O    -5.97868    4.85739   11.78088
      H1    -5.48213    4.16175   12.18589
       H   -10.74008    6.66317   12.92568
       O   -11.45094    6.59589   13.63927
      H1   -11.63263    7.45306   14.03509
       H    -6.33095   12.76859   15.44037
       O    -6.92700   12.68583   16.18605
      H1    -7.18391   13.56089   16.44377
       H    -8.81639   11.13111   14.50048
       O    -9.38418   11.61841   15.11094
      H1    -8.73465   12.21296   15.54893
       H   -12.60049    1.29568   16.05610
       O   -11.89079    1.93162   15.96689
      H1   -11.39759    1.64542   16.75190
       H   -14.16999    4.85104   14.63164
       O   -13.90431    5.05114   13.69692
      H1   -13.06573    5.45164   13.68143
       H    -4.03509    3.83720   16.81017
       O    -3.32297    4.06801   17.44900
      H1    -2.87007    4.82667   16.95414
       H    -7.36484    9.40621   10.34021
       O    -7.30356   10.19904   10.83409
      H1    -7.34441    9.92551   11.73022
       H   -11.19189   10.72295   17.47764
       O   -12.04344   11.17736   17.54626
      H1   -12.28225   11.41074   16.61967
       H   -12.47765    9.64119   14.50343
       O   -11.90354    9.15628   15.11134
      H1   -12.56770    8.86436   15.79111
       H    -8.02651    1.25195   14.27009
       O    -7.41368    2.06679   14.17656
      H1    -7.98498    2.77290   13.79326
       H    -7.53404    8.87541   18.94258
       O    -8.05266    9.66787   19.11435
      H1    -8.12878    9.68702   20.11169
       H    -8.92444    5.91719   12.55116
       O    -9.34429    6.49323   11.92204
      H1    -9.94146    5.80737   11.55545
       H   -14.27276    6.94084   16.05291
       O   -13.50192    6.94410   16.61820
      H1   -13.16893    6.02379   16.57598
       H    -9.32181    7.99965   16.30158
       O    -9.12425    7.13198   15.93619
      H1    -9.81983    6.88175   15.30911
       H    -7.66736    7.63220   15.16345
       O    -6.88949    7.78733   14.59526
      H1    -6.01964    7.64647   15.13942
       H    -9.15357   10.31527   16.24610
       O    -9.32248    9.61024   16.90853
      H1    -8.71429    9.78193   17.67750
       H    -7.66984    5.02094   18.87667
       O    -8.04957    4.46177   19.60163
      H1    -7.86713    3.54577   19.26593
       H    -7.81602    7.01662   17.34853
       O    -7.21185    6.95982   18.08292
      H1    -6.32739    6.96285   17.60322
       H   -15.05372    4.12879   18.55277
       O   -14.24163    3.48588   18.57486
      H1   -13.61995    3.93098   17.96312
       H    -4.95522    1.66789   16.83511
       O    -4.19657    1.09246   16.75385
      H1    -3.65523    1.30891   17.53668
       H    -1.62077    5.54764   15.46456
       O    -2.04191    5.95600   16.22824
      H1    -1.31474    6.11478   16.88526
       H    -6.83633    9.41356   14.05925
       O    -7.21142   10.24514   13.70172
      H1    -6.50641   10.91685   13.66787
       H    -2.18617   10.19803   15.13970
       O    -1.99588    9.24852   15.06293
      H1    -1.34206    9.02726   15.78737
       H    -7.46001    6.08066   14.15922
       O    -7.78772    5.27373   13.76262
      H1    -7.15006    5.10395   13.04474
       H    -1.41284   10.17257   19.65001
       O    -2.33872   10.27259   19.57161
      H1    -2.73607    9.41193   19.37854
       H    -7.50862    1.33240   19.89334
       O    -7.79275    1.75715   19.08105
      H1    -8.68932    1.44266   18.99977
       H   -13.86237    7.49897   18.28561
       O   -14.26735    7.62620   19.16956
      H1   -13.70682    7.21914   19.78121
       H   -11.80045    3.78115   16.56164
       O   -12.17737    4.52927   17.07479
      H1   -11.87544    4.36927   17.95214
       H    -6.92576    2.39630   17.59266
       O    -6.30379    2.73130   16.91717
      H1    -6.75878    2.48795   16.06229
       H    -5.06142   10.30408   18.09544
       O    -5.60519   10.33002   17.28013
      H1    -6.05127   11.20777   17.19966
       H   -10.80333    6.40182   18.10386
       O   -10.67805    7.19105   18.68616
      H1   -10.56084    7.91171   18.06691
       H    -4.88886    8.80837   16.40285
       O    -4.48242    7.95022   16.26046
      H1    -3.55949    8.02450   15.87803
       H    -3.90206    7.89667   17.77651
       O    -3.52394    7.72778   18.65374
      H1    -4.32455    7.71879   19.18945

