102
frame 4 | Written by MDAnalysis XYZWriter (release 2.4.3)
       H     4.01303   -4.66350   -5.68998
       O     4.22203   -3.80122   -6.04765
      H1     3.53985   -3.46191   -6.65976
       H     1.74126  -12.07222   -6.45469
       O     1.53465  -12.63452   -7.19445
      H1     0.73929  -13.02863   -6.85917
       H    -0.58983   -8.09120   -2.59520
       O     0.04385   -8.63507   -3.01096
      H1    -0.34639   -8.98438   -3.81800
       H     0.41201   -6.82144   -3.69175
       O     0.84926   -5.95455   -3.95038
      H1     1.81980   -6.15956   -3.88721
       H     6.33011  -10.42300   -9.17424
       O     6.72220   -9.56028   -8.98931
      H1     6.23971   -8.81322   -9.34086
       H     0.86440  -10.58904  -10.95521
       O     1.07585   -9.97887  -11.68622
      H1     0.31593   -9.93472  -12.26041
       H     3.58269   -4.95043  -11.30791
       O     3.10382   -4.68182  -12.14645
      H1     2.17792   -5.08280  -12.08653
       H     3.08541  -10.69931   -4.37488
       O     2.17118  -10.36514   -4.54796
      H1     1.58286  -10.72467   -3.86791
       H    -0.36147   -5.46746   -6.84209
       O    -0.91360   -5.04281   -6.16199
      H1    -0.45032   -5.17572   -5.30729
       H    -0.15650   -6.66918  -10.81488
       O    -0.94958   -6.44404  -10.26762
      H1    -1.79686   -6.39940  -10.76052
       H     3.36371  -10.39961   -8.92133
       O     3.43746   -9.55050   -8.48532
      H1     4.24089   -9.13359   -8.85338
       H     1.73433   -7.94504  -11.62169
       O     1.69051   -7.16348  -11.01649
      H1     2.22117   -7.44877  -10.24394
       H    -0.99041  -14.30648   -5.81079
       O    -0.57756  -13.37825   -5.65175
      H1    -1.27066  -12.84115   -6.10969
       H     0.14437  -12.79790   -4.05405
       O     0.64522  -12.33756   -3.38513
      H1     0.52773  -12.80319   -2.51097
       H     5.90078   -4.46964  -10.19000
       O     4.96184   -4.82273  -10.10713
      H1     4.64386   -4.48451   -9.26184
       H     5.72525  -12.67632   -9.05894
       O     6.58044  -12.66306   -8.57635
      H1     6.43545  -11.97267   -7.84410
       H     6.54675   -5.09420   -7.33439
       O     6.77475   -4.16056   -7.31379
      H1     5.92637   -3.67507   -7.20857
       H     5.16602  -10.18386   -3.70244
       O     4.85923  -10.92144   -4.26513
      H1     4.83983  -11.75097   -3.79065
       H     2.77266  -12.36354   -8.59077
       O     3.59708  -12.16712   -9.14785
      H1     3.32717  -12.60004  -10.01163
       H     4.44262   -7.08313   -4.35246
       O     3.71090   -6.63802   -4.83519
      H1     3.39723   -7.25968   -5.46565
       H     2.68270   -8.89835   -7.20157
       O     2.17991   -8.22342   -6.69185
      H1     1.79573   -8.81305   -5.99275
       H    -1.04185  -11.76158  -10.39303
       O    -0.17399  -11.73780   -9.91774
      H1     0.24994  -12.61167   -9.80985
       H     0.91100   -9.56317   -1.74119
       O     1.24505  -10.18660   -1.01591
      H1     1.63976   -9.51406   -0.43848
       H     6.90673   -7.19545   -7.31948
       O     6.04367   -6.86787   -7.14856
      H1     5.65726   -7.20419   -6.29654
       H    -0.59902  -11.16438   -8.08443
       O    -1.30875  -10.53926   -7.73034
      H1    -1.08652  -10.17049   -6.92055
       H     6.34637  -10.37785   -5.95678
       O     7.00059  -10.74257   -6.52302
      H1     7.15595  -10.09825   -7.32244
       H     3.75477  -13.91271   -8.04013
       O     3.97298  -14.82932   -8.05847
      H1     4.90105  -14.87435   -7.74498
       H     1.13608   -6.93806   -7.66762
       O     0.64618   -6.24124   -7.98004
      H1     0.22752   -6.62528   -8.73984
       H    -1.91177   -7.96528   -9.29657
       O    -2.52567   -8.73573   -9.30028
      H1    -2.05025   -9.50140   -8.93057
       H     6.63321   -8.19944   -3.90451
       O     5.74689   -8.11262   -3.60669
      H1     5.79575   -7.84462   -2.67412
       H     5.15022   -6.66425  -10.12767
       O     5.02572   -7.63466  -10.03408
      H1     5.37113   -7.97727  -10.91909
       H    -2.11731  -10.03246   -4.42593
       O    -1.69344   -9.55303   -5.15737
      H1    -2.20328   -8.74155   -4.94172
       H     2.06457  -13.05577  -12.24717
       O     2.76399  -12.45486  -11.92389
      H1     2.45392  -11.50569  -12.02714
       H     3.12156   -2.10527   -8.52312
       O     2.86933   -3.01762   -8.29417
      H1     2.31561   -3.38015   -8.99757

