102
frame 7 | Written by MDAnalysis XYZWriter (release 2.4.3)
       H    -3.36327   -2.79702   11.18765
       O    -2.95473   -1.93133   11.25194
      H1    -2.48152   -1.97060   12.09331
       H     4.55701   -2.48981   13.26429
       O     4.78280   -2.63041   12.32543
      H1     4.06787   -2.18480   11.82874
       H     0.96724   -1.12999   18.20639
       O     1.83037   -1.07534   17.79521
      H1     2.00878   -2.02751   17.53473
       H     1.37545   -6.84586   14.63005
       O     1.80898   -6.59603   15.46966
      H1     2.74059   -6.60338   15.24926
       H    -0.96957   -0.84526   13.62816
       O    -1.84163   -1.17251   13.87287
      H1    -2.45973   -0.38427   13.85808
       H    -0.22351   -7.70643   13.14938
       O     0.64756   -7.39238   13.15477
      H1     0.92220   -7.24009   12.26896
       H     6.99406   -3.00073   15.53048
       O     6.00237   -2.79501   15.45123
      H1     5.57286   -2.89983   16.33463
       H     4.97523    0.23132   16.46554
       O     4.96226   -0.30387   15.65670
      H1     5.48224   -1.10056   15.85353
       H    -2.24150   -6.71558    9.65681
       O    -1.63731   -7.12537   10.25977
      H1    -1.13093   -6.42917   10.73279
       H    -2.78124   -8.69183   13.21593
       O    -1.89668   -8.28452   12.93391
      H1    -2.12063   -7.89880   11.97809
       H     1.18061    1.45736   16.29606
       O     0.89298    2.29495   16.63710
      H1     0.32277    2.14148   17.43511
       H     3.26858   -0.52523   10.19571
       O     3.28037   -1.47730   10.27311
      H1     4.00195   -1.74375    9.69634
       H    -0.43392   -3.54227   14.29507
       O    -1.36729   -3.85567   14.06428
      H1    -1.93017   -3.06144   13.96694
       H    -1.94204   -7.02045   17.67791
       O    -2.11635   -7.87635   18.08922
      H1    -1.64594   -7.77139   18.89691
       H     0.19394  -10.19779   17.00836
       O    -0.17474   -9.37624   16.66005
      H1    -0.53137   -8.77927   17.35340
       H    -1.68515   -4.25214   10.83696
       O    -0.88804   -4.57968   11.23213
      H1    -1.13198   -4.68693   12.15143
       H    -1.44673   -4.99420   15.71306
       O    -1.33395   -5.83390   16.20633
      H1    -0.79816   -6.35135   15.60663
       H     2.67729   -1.36892   13.73789
       O     3.21664   -1.80367   14.39205
      H1     3.78234   -1.10863   14.84663
       H     2.68906   -5.82899   10.68942
       O     1.74265   -5.84642   10.36349
      H1     1.18940   -5.17630   10.83986
       H     1.62541   -0.03119   14.38066
       O     0.98009   -0.05889   15.10467
      H1     1.33957   -0.61198   15.82372
       H    -1.00476    0.18727   18.78353
       O    -0.72212   -0.69006   19.09629
      H1    -0.97248   -0.70447   20.03148
       H     7.65161   -5.02271   13.63793
       O     7.78359   -4.06584   13.69357
      H1     6.95666   -3.69632   14.00607
       H     4.47708   -4.44729   11.86352
       O     4.46422   -5.41677   11.67196
      H1     5.40619   -5.80408   11.74458
       H     4.23198   -6.26256   13.32905
       O     4.38748   -6.53283   14.25789
      H1     4.58609   -7.47454   14.15764
       H     4.53431   -7.21675   19.28114
       O     4.28761   -6.65454   18.54417
      H1     5.12775   -6.66379   18.04741
       H     2.11915   -3.31598   14.71089
       O     1.29999   -3.78402   14.82688
      H1     1.45638   -4.72352   14.97071
       H    -1.72438   -3.95836   20.07240
       O    -1.78721   -3.75425   19.13143
      H1    -1.68327   -2.82122   19.09815
       H    -0.29079   -4.75974   18.80865
       O     0.42598   -5.41436   18.70133
      H1     0.28773   -5.85665   17.83149
       H    -0.02554   -2.81642   11.87416
       O     0.37303   -1.92929   11.79538
      H1    -0.17999   -1.62739   11.07223
       H     4.37422   -2.73706   18.40208
       O     5.06429   -2.15578   18.73305
      H1     4.62370   -1.82277   19.54072
       H     6.22717   -6.59824   14.66827
       O     7.07547   -6.53163   15.12755
      H1     7.37375   -7.42518   15.07753
       H     2.31146    1.36067   12.43359
       O     2.40979    0.46805   12.74336
      H1     2.02071   -0.05634   12.04076
       H     2.33586   -4.32398   17.97346
       O     2.47794   -3.76871   17.20438
      H1     1.80143   -3.82597   16.54495
       H     2.36827   -8.03166   16.26205
       O     2.93773   -8.56990   16.90259
      H1     3.34608   -7.82568   17.44199

