102
frame 11 | Written by MDAnalysis XYZWriter (release 2.4.3)
       H     3.30617    9.20539   -3.44933
       O     3.06587    9.49052   -4.34995
      H1     3.10804    8.64422   -4.88536
       H     7.13949   10.35454   -2.32348
       O     6.34915    9.80681   -2.13788
      H1     5.77141    9.80954   -2.92242
       H     2.04458    4.88230    1.35523
       O     2.38979    4.00704    1.43220
      H1     1.82969    3.49735    0.83920
       H     7.37168   10.00870    4.73066
       O     8.04670    9.46509    4.27920
      H1     7.58142    9.22829    3.41269
       H     5.73663   12.95701   -1.62085
       O     5.08779   12.25287   -1.34379
      H1     5.50739   11.41408   -1.66471
       H     7.52499    7.79011    4.80271
       O     7.53487    6.95953    5.28951
      H1     8.44171    6.55824    5.21952
       H     0.47367    6.88747    0.93937
       O     1.34081    6.46548    0.96296
      H1     1.84575    7.21532    1.28899
       H     7.58822    2.93803    0.38929
       O     7.29936    3.80189   -0.01818
      H1     6.41954    4.10384    0.32293
       H     4.64623    5.69447   -2.43504
       O     4.43026    4.79712   -2.19117
      H1     4.46385    4.87564   -1.22232
       H     6.84221    9.95166    1.25089
       O     7.13334    9.01286    1.49341
      H1     7.97837    8.95824    1.02219
       H     4.36160    8.19386   -0.83030
       O     3.90420    8.51097   -1.60537
      H1     3.25539    7.84589   -1.87723
       H     9.61293    5.40979    3.90037
       O     9.95946    5.79436    4.70366
      H1    10.06234    5.04795    5.35473
       H     7.29271    5.55153    3.89779
       O     6.82623    4.95924    3.29172
      H1     7.47123    4.92410    2.51500
       H    10.98624   10.46457    4.84653
       O    10.69250   10.00024    4.00925
      H1     9.74191    9.84227    4.17145
       H     5.67887    7.95415    1.03064
       O     4.86340    7.45416    0.87807
      H1     4.26759    7.66689    1.60967
       H     9.32374    8.09948   -0.72910
       O     9.40476    8.74310   -0.00516
      H1    10.00402    8.32907    0.62058
       H     4.43370    2.21282    2.88872
       O     4.64956    2.04967    1.95625
      H1     5.07112    2.87231    1.58695
       H     2.80601    8.24269    3.25288
       O     2.67958    8.53366    2.32888
      H1     2.06628    9.24354    2.33586
       H     8.77860    2.83589   -2.79981
       O     8.99096    3.51334   -2.13151
      H1     8.13481    3.62613   -1.67245
       H     5.38694   10.86844    2.79455
       O     5.22163   10.37058    3.58778
      H1     5.10574    9.45153    3.26655
       H     8.94575   11.40501   -3.01892
       O     8.52999   11.47620   -2.09983
      H1     9.27335   11.29127   -1.51768
       H     1.45860    6.49783   -3.06122
       O     1.93367    6.79654   -2.24742
      H1     1.33169    6.99376   -1.53297
       H     0.70662   11.01670    3.02752
       O     1.09962   10.99489    2.13835
      H1     0.49687   11.52129    1.57773
       H     3.43535   12.54123    4.16963
       O     3.86666   12.33502    4.99766
      H1     4.29290   11.50107    4.76227
       H     3.99175    4.39084    1.11682
       O     4.86717    4.75013    0.68691
      H1     4.76977    5.72353    0.64941
       H     6.13028    7.84524   -2.43448
       O     6.09706    6.95922   -2.83158
      H1     6.17720    7.16135   -3.76495
       H    10.55531    8.19854    2.82441
       O    10.81116    7.71686    2.00249
      H1    11.73529    7.95175    1.83422
       H     0.68762    6.61109    3.29923
       O    -0.06322    7.07842    3.65518
      H1    -0.22284    6.73671    4.52946
       H     6.59656   12.22256    1.44985
       O     5.91760   11.58360    1.30784
      H1     5.68189   11.73317    0.37569
       H     1.75982   10.33928   -1.02195
       O     1.75443   11.29902   -1.03962
      H1     2.64043   11.54079   -0.84277
       H     3.25700    7.86086    5.72504
       O     3.81110    7.77051    4.91079
      H1     4.38708    6.99842    5.03243
       H     8.67553    5.16434    0.80091
       O     9.30803    5.18284    1.57526
      H1     9.69587    6.05268    1.59640
       H     9.50696    6.48928   -2.42046
       O     8.88677    7.23043   -2.29747
      H1     7.96413    6.96111   -2.52779
       H     4.09221   12.19324    1.69583
       O     3.22704   12.56337    2.07905
      H1     2.52014   11.93658    1.94296

