102
frame 1 | Written by MDAnalysis XYZWriter (release 2.4.3)
       H    -1.35804    9.81857    8.75902
       O    -2.32581    9.94014    8.93918
      H1    -2.71785    9.03075    8.83605
       H     4.54381   13.81186   14.36675
       O     5.03023   13.04035   14.12658
      H1     4.97771   13.03351   13.20476
       H     0.81998   19.27017   12.17780
       O     1.60022   19.19434   12.67683
      H1     1.95120   18.31738   12.68215
       H     2.69100   16.07962   12.10550
       O     1.97311   16.41572   12.64554
      H1     1.14465   16.06545   12.25247
       H     4.70550   16.55420   11.59110
       O     4.89191   15.58615   11.62157
      H1     5.24903   15.32725   10.74385
       H     0.35893    6.86960   10.20091
       O    -0.31440    6.78980   10.86347
      H1    -0.02292    7.49150   11.48782
       H     2.40224   13.63895   18.00999
       O     2.08447   14.08917   17.19183
      H1     1.71994   14.90275   17.50143
       H    -2.26848    9.45697   14.11831
       O    -3.08180    9.47373   13.61340
      H1    -2.94989   10.26332   13.07099
       H     3.13758   11.37870    7.73823
       O     2.25325   11.47711    8.16036
      H1     2.25840   11.27141    9.11833
       H    -1.65681   11.89698   11.17253
       O    -0.80101   12.36215   11.09068
      H1    -0.89841   12.72651   10.18907
       H     3.68528   17.38817   16.37708
       O     3.27469   18.17765   15.97592
      H1     2.62259   17.83394   15.34760
       H    -3.33544    8.24557   12.30433
       O    -3.63005    7.69590   11.51985
      H1    -4.02927    7.00465   12.00903
       H    -4.33713   11.44870   11.31950
       O    -3.36689   11.41527   11.34996
      H1    -3.10287   10.79135   10.63948
       H     4.27266   10.09803   15.74929
       O     3.89265    9.97710   16.64622
      H1     4.31970   10.57948   17.27711
       H     5.49728   13.25837   11.10516
       O     5.43261   12.38015   11.42815
      H1     4.48894   12.21774   11.28387
       H    -2.47479   17.24140   10.38826
       O    -1.83163   16.85567    9.76106
      H1    -2.36301   16.25001    9.31317
       H     0.68855   13.01965   17.22940
       O    -0.12344   12.48934   17.04325
      H1    -0.73736   12.58286   17.81846
       H     0.20229   16.59533   16.81095
       O     1.06200   16.53087   17.27850
      H1     1.41116   17.42031   17.28277
       H    -1.36571   12.27567    7.58066
       O    -0.96768   12.83170    8.29760
      H1    -0.50780   13.43766    7.77363
       H    -0.87666   13.56684   15.94448
       O    -1.45371   13.96325   15.31150
      H1    -1.44719   14.91489   15.35797
       H    -1.06325   15.73884   10.83298
       O    -0.38341   15.35545   11.39403
      H1    -0.69680   14.46222   11.62678
       H    -3.23675   16.85048   13.04125
       O    -2.56862   17.31748   12.50100
      H1    -1.80770   16.75721   12.55988
       H     1.33753   14.49981   10.66893
       O     2.30213   14.27809   10.52856
      H1     2.44379   14.74215    9.68584
       H     1.45226    9.91432   13.18155
       O     2.13906   10.58997   13.15259
      H1     1.59450   11.40118   13.31011
       H    -0.32852   13.27653   13.87857
       O     0.34537   12.81470   13.39610
      H1    -0.14326   12.56443   12.56968
       H    -1.60535   10.32015   15.73886
       O    -1.16209    9.45687   15.85813
      H1    -0.27942    9.63896   16.24765
       H    -5.45440   15.38039   13.73692
       O    -4.55103   15.47842   14.14985
      H1    -4.52450   14.73320   14.80537
       H    -2.53404   12.51143   15.64807
       O    -2.82031   11.62979   15.75259
      H1    -3.69480   11.69670   16.18584
       H     1.99921   10.01052   17.27399
       O     1.09095    9.94503   17.42765
      H1     0.69870   10.83172   17.33446
       H     0.56087    7.93551   13.66119
       O     0.09811    8.77775   13.42013
      H1    -0.31725    8.91253   14.29994
       H    -1.84804   17.04090   16.22624
       O    -1.20459   16.94561   15.43465
      H1    -0.81411   17.80866   15.36952
       H     4.02498   10.16170   13.57619
       O     4.84769   10.21799   14.01554
      H1     4.91402   11.15361   14.11849
       H     2.65535   15.35474   14.11380
       O     3.19064   15.06070   14.83603
      H1     2.69271   14.90931   15.65745
       H     2.73892   12.59202   10.89371
       O     2.94336   11.63088   10.94028
      H1     2.60506   11.24747   11.76250

