102
frame 10 | Written by MDAnalysis XYZWriter (release 2.4.3)
       H    14.01374  -13.30020    4.27157
       O    13.22865  -13.05821    3.79167
      H1    12.71760  -13.87582    3.73241
       H    18.77312  -13.44693   -6.51884
       O    19.38520  -13.68136   -7.25400
      H1    19.02374  -13.29126   -8.07315
       H    19.49274  -17.30291   -2.52243
       O    18.92350  -16.54898   -2.33886
      H1    18.06769  -16.71600   -2.69873
       H    15.68796  -15.07162    0.19103
       O    15.60444  -14.18368   -0.26276
      H1    15.14685  -14.46661   -1.08486
       H    17.78516  -14.34865   -0.31126
       O    18.56517  -13.84496   -0.12827
      H1    18.38070  -13.37095    0.69905
       H    13.22276   -9.31077    0.13429
       O    13.39435   -8.96921   -0.75782
      H1    12.84352   -9.51628   -1.41428
       H    17.32740   -9.70927    0.37655
       O    17.26393   -9.28789    1.26479
      H1    16.37022   -9.19158    1.55660
       H    18.09480   -5.99959   -3.66134
       O    18.85374   -6.48070   -3.31518
      H1    18.83894   -6.55555   -2.35479
       H    13.53212  -12.42855    1.94340
       O    13.88796  -12.13761    1.09484
      H1    14.55960  -12.76350    0.88367
       H    17.15482  -10.62741    2.81767
       O    16.87492  -10.89734    3.69692
      H1    16.54269  -10.12183    4.12993
       H    18.19036  -12.73973    2.68608
       O    18.62760  -12.26723    1.99550
      H1    19.58747  -12.15474    2.32218
       H    15.62342  -13.59203    5.71060
       O    15.92275  -13.57829    4.75328
      H1    16.19968  -12.65120    4.60866
       H    15.98107  -12.71296   -2.79664
       O    15.81921  -11.80545   -2.86576
      H1    16.32833  -11.68303   -3.67936
       H    14.62785  -10.48784    2.12520
       O    14.52467   -9.52216    1.94294
      H1    14.05375   -9.16494    2.65852
       H    15.06559  -18.94779   -1.10568
       O    15.31883  -18.00821   -0.99627
      H1    15.77341  -17.85388   -0.13525
       H    13.16533  -12.58560   -0.96599
       O    12.70110  -13.00068   -1.73651
      H1    13.41256  -13.46270   -2.18945
       H    14.89418   -8.64237   -1.47614
       O    15.73711   -8.48395   -1.99086
      H1    16.04510   -7.69910   -1.51129
       H    13.51164  -10.83442   -5.78256
       O    13.72395  -11.74941   -6.04181
      H1    14.38111  -11.73117   -6.73240
       H    15.18169  -15.31239   -2.93967
       O    14.43056  -14.77475   -2.72361
      H1    13.81030  -15.35064   -2.25374
       H    12.67925   -9.80782   -4.29336
       O    12.92117   -9.27222   -5.09374
      H1    13.84237   -8.97342   -4.85548
       H    15.52324   -9.54638   -8.06010
       O    15.15515   -8.83325   -7.48060
      H1    15.57441   -8.93495   -6.62636
       H    18.51053  -11.15418    4.93654
       O    19.15177  -11.35396    5.67059
      H1    18.69956  -11.07703    6.44102
       H    15.77622   -8.11583   -3.81906
       O    15.66296   -8.13637   -4.76810
      H1    15.18155   -7.29835   -5.01720
       H    17.15587  -16.58749    4.31826
       O    16.40144  -16.38601    3.71313
      H1    15.98630  -15.56859    4.04480
       H    15.26266   -6.22090    1.00033
       O    14.48620   -5.80570    1.53446
      H1    14.89900   -4.93998    1.79712
       H    13.37725  -13.45052   -5.58855
       O    13.16626  -14.37474   -5.58812
      H1    13.73265  -14.66311   -4.82044
       H    19.16042   -8.42832    3.33219
       O    18.63809   -7.97697    4.05636
      H1    18.55563   -7.05540    3.74929
       H    17.72576  -16.64611    0.86079
       O    16.73841  -16.46243    0.99835
      H1    16.62759  -16.24560    1.94496
       H    17.85407  -12.21074   -5.09825
       O    17.85277  -13.16107   -4.97449
      H1    18.62982  -13.47609   -4.50399
       H    16.95011   -9.81580   -4.72589
       O    17.65105  -10.47505   -4.95075
      H1    18.45060  -10.03139   -4.51152
       H    17.10184   -6.02026    0.43283
       O    16.60141   -6.81233    0.22143
      H1    17.08415   -7.50656    0.75766
       H    16.55068  -16.77967   -4.50390
       O    16.58235  -16.55826   -3.59568
      H1    16.11203  -17.31676   -3.19159
       H    12.39451  -11.36809   -2.61305
       O    11.96908  -10.52822   -2.86088
      H1    11.11516  -10.68948   -3.28056
       H    17.23951  -10.71166   -1.78210
       O    17.92877  -10.76538   -1.10949
      H1    18.09891  -11.67726   -1.00154

