102
frame 1 | Written by MDAnalysis XYZWriter (release 2.4.3)
       H    -7.81943   -7.85153  -17.20907
       O    -7.50367   -8.61353  -17.76444
      H1    -7.12039   -8.30667  -18.56143
       H   -13.28639  -18.16966  -15.90771
       O   -12.80119  -18.30899  -16.71018
      H1   -12.50511  -19.19975  -16.69494
       H   -12.08159  -12.22561  -17.45570
       O   -12.29408  -12.78969  -16.65008
      H1   -11.58870  -13.43476  -16.46185
       H   -10.28001  -15.62779  -16.35126
       O   -10.71969  -14.86892  -15.98311
      H1    -9.94892  -14.42853  -15.53082
       H   -10.27275  -11.33633  -18.45448
       O   -11.09495  -11.66710  -18.87130
      H1   -11.24947  -11.11215  -19.67364
       H    -6.62295  -16.69315  -15.24347
       O    -7.13577  -17.28576  -14.63337
      H1    -6.73930  -18.16532  -14.78570
       H   -10.70132  -14.88515  -11.99140
       O   -10.78020  -14.48593  -11.13108
      H1    -9.88088  -14.21587  -10.97041
       H   -11.29090  -12.17742  -12.82116
       O   -10.29679  -12.06581  -12.65497
      H1    -9.79864  -12.52680  -13.36005
       H   -14.54723  -15.37337  -17.72583
       O   -14.64252  -15.91154  -18.52546
      H1   -13.77300  -16.24110  -18.67439
       H   -11.83040  -16.07072  -13.19200
       O   -10.90343  -15.81045  -13.43364
      H1   -10.95530  -15.51859  -14.33847
       H   -16.44061  -12.19629  -16.49104
       O   -16.86785  -13.06593  -16.14832
      H1   -17.16071  -12.78368  -15.27687
       H   -13.60537   -9.83835  -14.98532
       O   -14.22969   -9.89116  -14.21820
      H1   -15.00352   -9.41411  -14.49441
       H    -5.56803  -14.40436  -15.91022
       O    -6.14004  -15.20611  -16.12446
      H1    -6.85519  -14.80860  -16.63314
       H    -8.08887  -13.25250  -14.26954
       O    -8.84506  -13.22849  -14.87619
      H1    -8.69996  -12.51436  -15.50555
       H   -12.94190  -10.29209  -17.45383
       O   -12.50381   -9.69825  -16.80480
      H1   -11.58258   -9.98625  -16.72526
       H   -13.54642  -11.12663  -13.32860
       O   -12.99655  -11.58884  -12.70558
      H1   -13.11030  -11.10827  -11.84952
       H   -15.08587  -18.19842  -15.05406
       O   -14.37834  -18.26093  -14.38722
      H1   -14.51611  -19.15740  -14.07536
       H   -11.33457  -16.65151  -19.24092
       O   -12.23961  -17.02068  -19.09475
      H1   -12.17960  -17.25689  -18.15774
       H   -16.18123  -14.34273  -13.01123
       O   -17.12466  -14.66811  -12.99183
      H1   -17.27677  -15.20374  -13.77299
       H   -16.05999  -11.11987  -18.07589
       O   -15.87992  -10.70931  -17.22379
      H1   -16.59371  -10.08201  -17.03806
       H    -5.93214  -12.59176  -13.93683
       O    -6.59058  -12.76795  -13.27474
      H1    -6.79790  -11.91224  -12.89537
       H   -13.72210  -13.85361  -16.33935
       O   -14.46623  -14.47383  -16.03907
      H1   -15.25363  -13.93724  -16.12230
       H    -6.32370  -12.46671  -18.75564
       O    -6.85804  -12.50282  -17.91666
      H1    -6.55929  -11.68495  -17.45851
       H   -16.49510  -17.17051  -16.05153
       O   -15.73102  -17.58699  -16.48598
      H1   -15.24002  -16.91882  -16.97419
       H   -11.30295  -11.27034  -10.46654
       O   -11.83316  -11.41370   -9.63993
      H1   -12.24643  -12.29045   -9.88786
       H   -12.81604   -8.16652  -13.59649
       O   -12.14765   -7.54343  -13.92396
      H1   -11.41658   -8.13828  -14.11355
       H    -9.36672  -16.46945  -19.05655
       O    -9.73985  -16.22728  -19.91102
      H1    -9.83087  -15.25761  -19.89188
       H   -13.77945  -13.22085  -12.85368
       O   -14.32027  -13.94913  -13.25238
      H1   -14.21836  -13.93773  -14.22277
       H    -8.21670  -17.49235  -17.93367
       O    -8.47588  -16.73609  -17.36646
      H1    -8.07879  -16.92106  -16.50707
       H   -12.61588   -8.24806  -18.04828
       O   -12.80828   -7.61625  -18.81258
      H1   -12.41158   -6.78254  -18.49120
       H    -9.98495  -17.30241  -13.09181
       O    -9.33126  -18.01019  -13.24893
      H1    -8.54648  -17.63650  -13.68002
       H   -13.98880  -17.31233  -13.12589
       O   -13.55538  -16.77815  -12.40141
      H1   -13.99418  -15.94177  -12.54243
       H    -8.23721  -11.77535  -17.25863
       O    -9.03716  -11.22390  -17.07967
      H1    -8.81838  -10.32621  -16.69092
       H   -10.32098  -10.41860  -13.59244
       O   -10.06336   -9.58494  -13.93296
      H1    -9.39225   -9.26361  -13.27152

