102
frame 10 | Written by MDAnalysis XYZWriter (release 2.4.3)
       H    -3.79090   -7.25128   -0.60881
       O    -4.22787   -8.07008   -0.74990
      H1    -3.46057   -8.63640   -0.73562
       H    -4.78925   -3.00595   -5.50964
       O    -4.26360   -2.49886   -6.10123
      H1    -4.45345   -2.98122   -6.92599
       H    -0.35200   -8.10298   -2.78606
       O    -0.25606   -8.79577   -3.48810
      H1    -0.95861   -8.61742   -4.12658
       H    -2.02844   -5.52266   -3.04229
       O    -2.02911   -5.65686   -3.99441
      H1    -1.80894   -4.74694   -4.28794
       H    -3.93664   -2.00142   -1.99505
       O    -3.39581   -2.42535   -2.63609
      H1    -2.49255   -1.98119   -2.59738
       H    -0.75687   -5.72409   -9.57203
       O    -1.35180   -6.47871   -9.87014
      H1    -2.25339   -6.10490   -9.99582
       H    -7.36733   -6.07869   -9.06706
       O    -7.90820   -6.89429   -9.04642
      H1    -8.26091   -7.05094   -9.95337
       H    -8.12117   -7.00255   -4.20378
       O    -7.28806   -6.55878   -4.43893
      H1    -7.38399   -6.21536   -5.35822
       H    -9.50892   -5.65428   -7.27358
       O    -8.80434   -5.20518   -6.79035
      H1    -8.07240   -5.35091   -7.40306
       H    -4.51620  -12.31965   -4.60992
       O    -5.18126  -13.00945   -4.44060
      H1    -5.66915  -13.22435   -5.26044
       H    -0.80854   -2.72186   -5.75099
       O    -1.57056   -2.86910   -5.19244
      H1    -2.33261   -2.59902   -5.67454
       H    -7.14118   -8.38601   -8.03201
       O    -7.26252   -8.97293   -7.31081
      H1    -6.47201   -8.83459   -6.77316
       H   -10.12876   -8.07688   -7.76894
       O    -9.81257   -8.37959   -6.93946
      H1    -8.90777   -8.55948   -7.04312
       H    -6.38799   -8.19551   -4.79357
       O    -5.88564   -8.98979   -4.94715
      H1    -6.42729   -9.71747   -4.75560
       H    -7.99206   -8.27760   -2.01335
       O    -7.30757   -8.11934   -1.37440
      H1    -6.46817   -7.98511   -1.81418
       H    -8.65888  -11.17710   -5.18237
       O    -8.21702  -10.69908   -4.51892
      H1    -8.04960  -11.27271   -3.77296
       H    -5.53427   -4.44505   -8.47682
       O    -5.94142   -5.12744   -7.96453
      H1    -5.39157   -5.30193   -7.17443
       H    -3.52899   -5.13776   -0.57684
       O    -4.09953   -5.29512    0.22700
      H1    -4.12298   -4.37447    0.51833
       H    -0.92730   -8.63067   -9.02821
       O    -0.81357   -9.33743   -8.42237
      H1    -1.35436   -9.18998   -7.60725
       H    -7.58516   -0.94599   -4.51505
       O    -6.70151   -0.72746   -4.78213
      H1    -6.49855   -1.49414   -5.31048
       H    -9.05162   -9.11025   -4.09963
       O    -9.34723   -8.33817   -3.56218
      H1   -10.15716   -7.97124   -3.99474
       H    -3.65393   -5.05523  -10.93362
       O    -3.92285   -5.93559  -10.56169
      H1    -3.71731   -6.49420  -11.35525
       H    -9.19471   -3.69386   -6.99612
       O    -9.54727   -2.76969   -6.99246
      H1    -9.11081   -2.22585   -7.63985
       H    -4.95538   -6.51496   -5.09686
       O    -4.36939   -6.12799   -5.81583
      H1    -3.72173   -5.72691   -5.24487
       H    -1.09367   -4.76647   -1.07125
       O    -2.02189   -4.69867   -1.41806
      H1    -2.05319   -3.81126   -1.81444
       H    -5.25947   -2.12231   -9.13912
       O    -4.61351   -2.81426   -8.91855
      H1    -4.23568   -3.12425   -9.68908
       H     0.46524   -6.87730   -6.27826
       O     0.35974   -6.02855   -5.71108
      H1    -0.29871   -6.14326   -5.01894
       H    -8.17312   -5.24617   -2.19876
       O    -7.86430   -4.78045   -1.36655
      H1    -8.27392   -5.20941   -0.60994
       H    -4.73017   -7.30348   -9.26377
       O    -4.85856   -8.20384   -8.94649
      H1    -3.94966   -8.53617   -8.90804
       H    -6.81662  -10.78649   -8.11164
       O    -6.53708  -11.54168   -8.64125
      H1    -7.34586  -11.93638   -9.03602
       H    -2.56244   -9.67631   -5.46016
       O    -1.97140   -9.03818   -5.86032
      H1    -2.45146   -8.22391   -5.99747
       H    -4.30291  -10.15872   -4.57367
       O    -3.52633  -10.70307   -4.47808
      H1    -3.11554  -10.37080   -3.63930
       H    -2.93221  -11.09943   -1.23988
       O    -2.40076  -10.72074   -1.99553
      H1    -1.77941  -10.13213   -1.59460
       H    -6.01954   -4.08561   -3.44179
       O    -5.32712   -3.90390   -4.09238
      H1    -4.60637   -3.47111   -3.57974

