105
frame 1 | Written by MDAnalysis XYZWriter (release 2.4.3)
       H    17.15066  -11.73410   -5.99598
       O    16.58060  -11.30506   -6.61158
      H1    16.78485  -10.35321   -6.55350
       H    17.90686   -9.35618  -10.01333
       O    17.33807   -9.45286   -9.24603
      H1    17.76670   -8.79609   -8.65653
       H    10.65682   -8.84649  -11.46716
       O     9.77956   -8.51856  -11.37366
      H1     9.85589   -7.60920  -11.19112
       H    10.74042   -5.95507   -9.72761
       O    11.34610   -5.86475   -9.00647
      H1    11.43705   -6.64063   -8.47852
       H    13.93381   -5.39810  -12.66076
       O    14.29062   -5.08429  -13.43177
      H1    13.50842   -4.78390  -14.02615
       H    11.71161  -12.80069   -8.95290
       O    11.12010  -13.28549   -8.34985
      H1    11.12694  -14.18565   -8.71547
       H    13.63321  -12.22181  -11.05001
       O    13.16021  -12.13326  -10.17451
      H1    13.53119  -11.23812   -9.87199
       H    11.34393  -10.89259   -6.76008
       O    12.26032  -11.25785   -6.72396
      H1    12.76315  -10.74356   -7.38795
       H    14.05746  -12.74635  -13.43944
       O    14.33597  -13.08097  -12.55754
      H1    15.30382  -12.91029  -12.46542
       H     8.70062  -11.05366   -7.41684
       O     9.44571  -11.36571   -6.98769
      H1     9.89994  -12.02328   -7.53828
       H    13.06493  -10.36416   -5.27665
       O    13.69658  -10.08807   -4.57568
      H1    13.21817   -9.60593   -3.87189
       H    13.33208   -8.62557   -8.78154
       O    12.82014   -8.47571   -8.01263
      H1    13.45771   -8.36970   -7.31796
       H    13.51807  -14.77015   -6.23596
       O    14.42817  -14.46470   -6.19821
      H1    14.43660  -13.81161   -5.45813
       H    15.19797   -5.38212   -8.57059
       O    14.78203   -4.91234   -7.80264
      H1    14.63996   -4.01769   -8.13770
       H    14.46809   -8.96969   -5.61153
       O    14.86458   -8.42395   -6.34419
      H1    14.50673   -7.49228   -6.23413
       H    17.77398   -6.52314   -6.91973
       O    18.11979   -5.69281   -7.29019
      H1    19.00857   -5.63488   -6.89368
       H    19.16371  -12.58981   -9.92994
       O    19.41491  -12.79192  -10.89263
      H1    19.82864  -13.71469  -10.77775
       H    14.65750  -14.09670   -8.07869
       O    14.45778  -14.29781   -8.98859
      H1    13.95448  -13.57612   -9.26637
       H    11.97054  -11.22495  -11.09539
       O    11.52934  -10.78366  -11.87435
      H1    12.19599  -10.12219  -12.12216
       H    15.50251   -8.34989  -15.19156
       O    15.35608   -9.00048  -14.43508
      H1    15.02216   -9.80617  -14.87582
       H    13.27587  -11.15268  -15.09115
       O    14.22980  -11.31072  -14.92736
      H1    14.40679  -12.23754  -15.07326
       H    16.37748   -6.74718  -10.17630
       O    15.52928   -7.18552   -9.96149
      H1    15.80223   -8.11941   -9.86934
       H    13.48179   -7.83433  -12.18898
       O    13.25739   -8.66528  -12.66542
      H1    13.89999   -8.58879  -13.38912
       H    18.24791   -6.36488   -8.95428
       O    18.33310   -6.72887   -9.83529
      H1    18.74783   -6.13198  -10.47869
       H    19.32034  -10.01305  -12.97252
       O    18.81751   -9.25296  -12.75207
      H1    17.89816   -9.62024  -12.63802
       H    11.80973   -7.48121  -13.69104
       O    11.33185   -7.16701  -14.47646
      H1    10.44026   -6.99947  -14.09225
       H    17.93649  -11.21441   -8.96275
       O    18.50511  -11.95132   -8.56600
      H1    17.86483  -12.65391   -8.27294
       H    14.14687   -6.79010  -10.75019
       O    13.30395   -6.50153  -11.11878
      H1    12.83700   -6.17672  -10.35317
       H    15.38445   -9.83158   -9.28132
       O    14.60640   -9.82672   -9.86347
      H1    14.93342  -10.02880  -10.75514
       H    12.61844  -14.83922  -11.83212
       O    11.93112  -15.34312  -12.25487
      H1    12.31060  -16.21680  -12.29687
       H    10.32943  -14.23361  -12.22029
       O     9.73044  -13.47945  -12.46840
      H1    10.31988  -12.77112  -12.81826
       H    16.50841   -8.32101   -6.44902
       O    17.48098   -8.12265   -6.60134
      H1    17.94183   -8.21440   -5.76815
       H    17.45434  -13.14279  -11.80489
       O    17.00971  -12.87892  -12.60683
      H1    17.55520  -13.26778  -13.30287
       H    13.69473   -5.52419   -6.69682
       O    13.32825   -6.17761   -6.10311
      H1    12.44553   -6.32925   -6.40331
       H    16.48972  -11.18690  -12.10605
       O    16.25613  -10.23895  -12.04708
      H1    15.75704  -10.07161  -12.83504

