105
frame 1 | Written by MDAnalysis XYZWriter (release 2.4.3)
       H    14.63501  -12.81357    4.15199
       O    13.75875  -12.66009    3.66168
      H1    13.24280  -13.47531    3.81306
       H    16.06610  -14.28171    0.42714
       O    15.80728  -13.55012   -0.19727
      H1    16.02175  -13.75734   -1.12987
       H     9.53336  -12.79685   -0.05726
       O     8.58669  -12.99882    0.10646
      H1     8.17236  -12.14437   -0.16314
       H    11.31032  -15.15302    3.33131
       O    11.59068  -14.71504    4.14551
      H1    11.98705  -15.46944    4.56782
       H    16.84881  -11.93850   -0.12938
       O    17.45202  -11.22753    0.00011
      H1    18.28279  -11.60873    0.28903
       H    12.47317  -10.53355    0.97190
       O    11.96671   -9.76696    0.67230
      H1    11.14058   -9.80328    1.11929
       H    11.60686  -14.86581   -1.93483
       O    11.86509  -15.13185   -2.79053
      H1    12.45054  -15.91325   -2.76219
       H    16.64510   -9.72724    0.46601
       O    16.54176   -8.74795    0.59837
      H1    16.01105   -8.65152    1.42942
       H    13.57712  -12.21064    1.87578
       O    13.46154  -12.24060    0.91547
      H1    14.29187  -12.72498    0.65877
       H    17.73313  -11.02222    2.20395
       O    17.22110  -10.89783    3.02470
      H1    16.57880  -10.20826    2.87906
       H    16.38141  -12.87564    5.51791
       O    16.53229  -12.99262    4.58841
      H1    16.82394  -12.19539    4.11542
       H    13.86830  -12.05071   -4.15117
       O    13.75606  -12.99866   -4.00968
      H1    13.12688  -13.12627   -3.25621
       H    14.29721   -9.82011    3.43340
       O    14.90438   -9.30174    2.94937
      H1    15.01455   -8.44983    3.40755
       H    12.60627  -10.40934    5.14287
       O    11.92041  -10.49960    4.44480
      H1    12.05096  -11.39570    4.08951
       H    13.63388  -18.34303   -2.85234
       O    13.80243  -17.63163   -2.19924
      H1    13.81484  -18.13326   -1.39603
       H    12.13266  -13.21676    0.39404
       O    11.44279  -13.66877   -0.17864
      H1    11.30520  -14.55270    0.17815
       H    12.99385   -9.48552   -0.83433
       O    13.45099   -9.01884   -1.57569
      H1    14.41253   -9.17075   -1.39578
       H     9.27277   -9.82650    2.35262
       O     9.35340  -10.08639    3.29047
      H1    10.24142  -10.23606    3.58153
       H    11.76931   -8.43066   -3.08225
       O    11.04743   -8.95565   -3.49446
      H1    11.18168   -9.80206   -3.07643
       H    15.92678  -14.75683   -2.98190
       O    16.11319  -13.82598   -2.77117
      H1    15.30899  -13.31084   -2.95910
       H    13.06493  -10.36416   -5.27665
       O    13.69658  -10.08807   -4.57568
      H1    13.21817   -9.60593   -3.87189
       H    18.96134  -14.70639   -1.21229
       O    19.38448  -14.16514   -1.89070
      H1    18.62823  -13.70349   -2.27600
       H    16.29796  -15.94600    4.38744
       O    15.56305  -15.38323    4.04731
      H1    16.01307  -14.53273    4.13228
       H    10.53705  -17.20475   -0.59280
       O    10.64726  -16.48360    0.06863
      H1    10.54670  -16.95342    0.84561
       H    13.45303  -19.14784    1.13901
       O    13.88896  -18.31870    1.02852
      H1    14.89614  -18.43440    1.03948
       H    17.53826  -15.19164    1.39549
       O    16.57621  -15.41785    1.44836
      H1    16.38269  -15.40921    2.39902
       H    18.90112  -13.06745   -4.84556
       O    18.23722  -12.38999   -4.54630
      H1    17.49189  -12.97305   -4.24102
       H    12.22054   -6.83142    2.77788
       O    11.54832   -7.26290    2.18646
      H1    12.11041   -7.78071    1.57215
       H    16.71266  -17.30982    1.21444
       O    16.57682  -18.27327    1.15898
      H1    16.75126  -18.50046    0.24718
       H    13.67015  -17.33221    2.78689
       O    13.37816  -16.92298    3.66840
      H1    14.18056  -16.27388    3.84944
       H    17.00307   -7.79792   -2.40190
       O    16.11892   -7.81141   -2.00428
      H1    16.40407   -7.86387   -1.06298
       H     8.99422  -11.93848    3.24185
       O     8.95211  -12.90128    3.21066
      H1     9.14631  -13.16086    2.29458
       H    16.28661  -16.49918   -3.87926
       O    16.26449  -16.52873   -2.91920
      H1    15.42877  -16.98460   -2.64331
       H    10.97549  -12.62286   -1.83887
       O    11.21589  -11.97179   -2.53970
      H1    10.48655  -12.29284   -3.07088
       H    18.62380  -11.24725   -3.49920
       O    18.96588  -10.65104   -2.76776
      H1    18.48181  -10.92285   -1.92287

