105
frame 2 | Written by MDAnalysis XYZWriter (release 2.4.3)
       H     8.64000   17.84377   11.46933
       O     8.83819   16.98099   11.07874
      H1     8.11582   16.45881   11.39938
       H    11.96833   19.91410   14.64060
       O    12.08721   19.40690   13.83167
      H1    12.37407   20.00410   13.13279
       H    16.63609   18.58342   11.87077
       O    17.20001   18.04747   12.45374
      H1    17.71767   18.71590   12.97223
       H    12.38866   11.67130    7.88951
       O    11.48733   11.51444    8.10020
      H1    11.22057   12.16555    8.77585
       H    14.38459   15.98300    7.28566
       O    14.35215   15.51439    8.16832
      H1    15.29378   15.39916    8.50101
       H    13.34130   17.30500    2.90729
       O    13.11828   16.57965    3.45115
      H1    13.81756   16.60515    4.18932
       H    10.21076   16.33985   10.15972
       O    11.00924   16.17836    9.58475
      H1    11.75590   16.28068   10.21333
       H    11.02718   17.93505    9.20120
       O    11.18550   18.86944    8.80016
      H1    10.30645   19.31551    8.85781
       H    16.73171   14.27785    8.77813
       O    16.79159   15.18353    9.08220
      H1    16.86604   15.09205   10.05959
       H    11.41215   14.83052   14.52893
       O    11.84013   13.94815   14.49119
      H1    12.13185   13.78307   13.56845
       H    13.47236   17.38160   16.34672
       O    13.46423   18.36597   16.45323
      H1    14.07203   18.76375   15.87077
       H     9.67563   14.36311   14.79138
       O     9.02050   13.82226   14.32311
      H1     8.57591   13.47480   15.06562
       H    13.31646   17.33330    6.06881
       O    14.30902   17.20088    5.94063
      H1    14.76680   17.94087    5.65373
       H     9.77268   14.54669    4.70451
       O    10.40699   13.87500    4.52504
      H1    11.18291   14.01579    5.03852
       H    15.08143   20.05099   10.99218
       O    15.75179   19.42746   10.52645
      H1    15.03732   18.80113   10.27213
       H     8.23598   16.57930    8.17816
       O     7.95050   16.42673    7.26932
      H1     7.95394   15.46215    7.16275
       H    16.99555   18.79094    5.10692
       O    16.44650   18.79060    4.26265
      H1    15.72511   19.42945    4.33239
       H    16.36422   17.80003   14.65840
       O    16.68153   17.91365   15.53191
      H1    17.50615   17.39217   15.56652
       H    16.99646   11.88704    7.95463
       O    16.63472   12.46106    7.22036
      H1    17.09323   12.23995    6.41816
       H    13.47393   13.73232    6.01864
       O    12.59815   14.04741    6.24869
      H1    12.59816   14.39488    7.16230
       H    17.87836   19.51498    7.26867
       O    17.91281   18.87102    6.54035
      H1    18.67498   19.12072    5.98926
       H    14.87520   11.68763    7.25561
       O    14.13865   11.13806    7.41432
      H1    14.17284   10.54196    6.67148
       H     9.73753   12.82933   12.98087
       O     9.80583   12.26252   12.12929
      H1    10.42601   11.55731   12.36628
       H    15.31859   15.83286   12.16291
       O    14.38501   15.68496   12.41940
      H1    14.34164   14.75057   12.42233
       H    11.52052   17.98015    7.20431
       O    11.64172   17.98073    6.20598
      H1    11.12134   17.20855    5.89629
       H    11.14677   14.30030   10.05295
       O    11.29740   13.38470   10.17360
      H1    10.70416   13.09550   10.88332
       H    18.32061   16.48302    8.65673
       O    19.11716   16.93897    8.53321
      H1    18.86596   17.57124    7.86311
       H    13.79748   16.89113   11.25383
       O    13.57463   17.31515   10.36563
      H1    13.83772   16.72344    9.63474
       H    14.84664   15.81935   14.25214
       O    14.58554   15.61703   15.18756
      H1    13.74840   15.19148   14.96506
       H    15.61304   14.71455    5.10026
       O    15.31147   13.79551    5.38477
      H1    15.85848   13.53133    6.13000
       H    15.61770   14.55739   16.02861
       O    16.18145   13.78840   16.28275
      H1    16.20951   13.64410   17.23923
       H    12.44692   13.26512   11.64683
       O    13.11898   13.12639   12.34082
      H1    13.18138   12.15103   12.19957
       H    10.08436   17.22278   13.75672
       O    10.40566   16.50167   14.31161
      H1    10.03752   16.78753   15.14969
       H    17.20065   16.40275   11.67802
       O    17.14842   15.47566   11.64448
      H1    17.61447   15.15220   12.51390
       H    10.43095   19.07214   13.00160
       O     9.55508   19.14021   12.59764
      H1     9.26880   20.06837   12.62246

