105
frame 1 | Written by MDAnalysis XYZWriter (release 2.4.3)
       H    -1.38935   -9.95078   -0.50711
       O    -0.81374  -10.68791   -0.70242
      H1    -0.52623  -11.19860    0.03874
       H     1.89004  -18.92018   -2.79891
       O     2.54178  -19.34829   -2.19950
      H1     2.43249  -18.82866   -1.36327
       H    -0.00856  -16.29803    1.69115
       O     0.94914  -16.37683    1.87183
      H1     1.46401  -15.59035    1.67377
       H     0.39232  -13.42391    5.61078
       O     0.17383  -12.49927    5.87821
      H1     0.98315  -12.18759    6.26447
       H     3.75945  -13.99338    1.46338
       O     3.29538  -14.74594    1.90471
      H1     3.79316  -15.59283    1.68636
       H     2.55772  -10.51825    1.67854
       O     2.81469  -10.86260    0.78520
      H1     2.32326  -10.26006    0.27707
       H     0.67964  -12.89408   -3.87358
       O     1.34313  -12.25091   -3.66682
      H1     0.86181  -11.62456   -3.12577
       H     5.80513  -11.81606    2.00693
       O     5.64232  -12.53635    2.62549
      H1     5.80702  -13.29045    2.08969
       H     5.67560  -14.41160   -0.88455
       O     5.15451  -13.74267   -0.42478
      H1     4.79874  -13.15672   -1.14234
       H    -0.01686  -14.98943    4.33123
       O     0.52696  -15.22258    5.10536
      H1     1.35200  -14.95328    4.75193
       H     4.66406  -17.62042    2.43721
       O     4.86227  -16.91775    1.86625
      H1     5.61166  -16.30991    2.10128
       H     7.70859  -14.56132    2.63442
       O     7.08979  -15.09418    2.09110
      H1     7.17030  -14.86506    1.11013
       H    -3.85365  -17.31482    5.14436
       O    -2.90256  -17.39549    5.38186
      H1    -2.50485  -17.85816    4.66257
       H    -1.99446  -18.86126    2.37157
       O    -1.90853  -19.44306    3.15124
      H1    -0.97949  -19.29514    3.29723
       H     0.66647  -18.56492   -4.71454
       O     0.35145  -18.98104   -3.94914
      H1    -0.20025  -18.38962   -3.46283
       H     3.94981  -16.68038    5.53172
       O     3.44575  -17.39278    5.94699
      H1     2.50526  -17.22141    5.71421
       H     4.94771  -11.73603    5.74344
       O     4.77998  -12.59811    5.32109
      H1     5.05842  -12.51454    4.42142
       H    -2.77339  -15.31114    6.07607
       O    -3.07878  -14.46170    5.84458
      H1    -3.94890  -14.58617    5.41363
       H    -1.39555  -14.58520   -1.57100
       O    -2.12379  -15.16907   -1.33268
      H1    -1.91636  -16.02513   -1.74006
       H    -1.57272  -11.22747    3.03491
       O    -2.37874  -11.62656    2.66814
      H1    -2.78517  -10.95494    2.11444
       H    -2.01052  -15.56803    0.69328
       O    -1.83649  -16.18594    1.44674
      H1    -1.68365  -15.59365    2.19043
       H     0.05467  -17.70812    7.03215
       O     0.50348  -17.68370    6.15113
      H1     0.31712  -16.78643    5.80811
       H    -3.72402  -16.23629    2.21558
       O    -4.31771  -16.58377    2.90153
      H1    -5.17136  -16.18593    2.66563
       H     3.45770  -17.61302   -2.54694
       O     3.61358  -16.63387   -2.48868
      H1     4.51179  -16.51069   -2.67120
       H    -0.47254  -11.34108    4.62095
       O    -0.28376  -10.63131    3.99045
      H1    -0.48307   -9.81399    4.49477
       H     2.62862  -15.73969   -1.08487
       O     2.09048  -14.91290   -1.08662
      H1     2.65936  -14.15152   -0.78755
       H    -2.22190  -17.58046   -3.05701
       O    -1.47286  -17.82095   -2.53040
      H1    -1.76185  -18.40429   -1.84638
       H     1.45142  -10.89286    3.77953
       O     2.40769  -10.97649    3.49334
      H1     2.79440  -11.57572    4.10238
       H     3.10677  -15.65257   -3.90141
       O     2.67422  -15.33106   -4.65173
      H1     2.05790  -14.70670   -4.29985
       H    -0.05308  -12.17269    1.91294
       O     0.29217  -12.32389    1.08038
      H1     1.16278  -12.03844    1.05811
       H     3.99761  -14.33015    4.80980
       O     3.48012  -15.08014    4.48333
      H1     3.53106  -14.90223    3.54686
       H     1.97333  -17.67157    0.80535
       O     2.65562  -18.26817    0.47755
      H1     3.44548  -17.87437    0.82942
       H     0.75805  -18.70242    4.50685
       O     0.65114  -18.84693    3.52197
      H1     1.12058  -18.05907    3.08738
       H    -1.92036  -13.33488    3.15369
       O    -1.69244  -14.21513    3.46883
      H1    -2.30289  -14.35749    4.23447
       H     4.65473  -12.57044   -3.56309
       O     4.19273  -12.45448   -2.68454
      H1     3.31291  -12.07984   -2.90417

