105
frame 9 | Written by MDAnalysis XYZWriter (release 2.4.3)
       H     1.18650  -18.83771  -15.89254
       O     2.03057  -18.95400  -15.49757
      H1     1.92578  -19.74503  -14.87431
       H     9.13700  -15.82188  -19.71123
       O     9.73257  -15.31979  -19.08554
      H1     9.97759  -14.50774  -19.52558
       H     5.28916  -16.83832  -17.04657
       O     4.51847  -16.44256  -16.57453
      H1     4.68454  -15.47337  -16.73658
       H     5.60761  -13.27381  -12.91811
       O     4.68175  -13.28998  -13.09693
      H1     4.49684  -12.32386  -13.24332
       H     3.24464  -18.88698  -16.91890
       O     3.72821  -19.27016  -17.73589
      H1     4.51039  -19.75834  -17.39309
       H     3.47430  -11.52200  -15.24364
       O     3.03193  -11.61645  -16.11294
      H1     2.27922  -12.20604  -16.14588
       H     8.63582  -13.72903  -18.62398
       O     8.48275  -13.05694  -17.99286
      H1     7.89523  -12.45415  -18.51959
       H    12.56790  -16.69377  -14.76706
       O    12.86980  -16.91627  -15.64641
      H1    13.56981  -17.52616  -15.71763
       H     0.60748  -14.95314  -15.20883
       O     1.15973  -15.58366  -15.72367
      H1     1.58131  -16.11143  -15.04922
       H     2.03258  -16.35584  -17.28593
       O     2.25352  -16.45841  -18.23444
      H1     3.19193  -16.68401  -18.33852
       H     1.99486  -17.81471  -14.14661
       O     2.04041  -17.14682  -13.45020
      H1     2.94980  -16.80903  -13.49580
       H    10.28224  -12.98022  -17.02916
       O    11.23244  -12.95398  -16.87557
      H1    11.53794  -13.78809  -17.17318
       H     5.65123  -19.51042  -11.92043
       O     4.79720  -19.02858  -11.88162
      H1     4.42819  -19.22471  -12.75171
       H    12.29545  -17.44920  -19.49803
       O    11.43586  -17.57170  -19.09495
      H1    10.98875  -16.70818  -19.14425
       H     0.76245  -13.65096  -17.00634
       O     0.59678  -12.75597  -16.60715
      H1    -0.23241  -12.48606  -17.04894
       H     6.74082  -18.10282  -15.97305
       O     6.59880  -18.91727  -15.44541
      H1     7.46348  -19.36807  -15.58616
       H     8.62986  -16.07229  -12.20979
       O     8.78878  -15.29300  -11.58179
      H1     8.33661  -15.59169  -10.75540
       H     4.41683  -16.18122  -14.85243
       O     4.56146  -16.05745  -13.88435
      H1     4.55834  -15.08866  -13.70987
       H     4.21773   -9.02022  -18.04183
       O     4.64246   -8.68864  -18.86294
      H1     5.58832   -8.94708  -18.69825
       H     3.62282  -12.79810  -18.71779
       O     3.81899  -13.35230  -17.98440
      H1     3.75377  -12.71262  -17.22707
       H     5.33056  -16.39167  -11.94967
       O     5.48060  -16.22526  -11.03781
      H1     4.54486  -16.10179  -10.80569
       H    13.64051  -15.57793  -18.88239
       O    13.97977  -15.83288  -19.78805
      H1    14.78927  -15.36907  -19.92062
       H     7.07580   -9.68738  -17.19637
       O     7.36849   -9.71863  -18.13270
      H1     7.70944   -8.84472  -18.24360
       H    11.64182  -13.27275  -14.94398
       O    12.30679  -13.42150  -14.24692
      H1    13.07684  -13.23584  -14.80592
       H    11.02598  -17.26173  -16.25077
       O    10.07244  -17.27909  -15.96959
      H1     9.65260  -16.49013  -16.30446
       H     6.31293  -10.97664  -18.66981
       O     6.07771  -11.83476  -19.12336
      H1     5.57834  -12.33012  -18.49709
       H    11.06989  -15.88950  -12.47608
       O    11.95757  -15.99098  -12.81583
      H1    12.19223  -15.09378  -13.14378
       H     7.36410  -13.34930  -14.14227
       O     7.73930  -13.22676  -13.27794
      H1     7.91499  -14.14130  -12.97890
       H     7.57988  -16.67065  -14.55496
       O     7.06203  -15.88521  -14.70229
      H1     6.17398  -16.09608  -14.31587
       H    10.81943  -10.08733  -18.19108
       O    11.02164  -10.67302  -18.97006
      H1    11.36331  -11.52088  -18.45594
       H    10.19489  -10.78464  -13.97699
       O     9.24041  -10.96284  -14.37673
      H1     9.13593  -11.85094  -14.03276
       H    13.60475  -14.32204  -17.20329
       O    12.92201  -14.97606  -17.47615
      H1    13.11399  -15.72185  -16.84811
       H     7.16922  -17.88239  -18.26697
       O     7.04322  -17.02347  -17.82038
      H1     6.81202  -16.37603  -18.52969
       H     7.12229  -13.45043  -16.77004
       O     6.56495  -13.43941  -15.99201
      H1     6.78933  -14.32682  -15.64603
       H     9.34923  -18.10051  -12.38814
       O     9.00017  -17.58875  -13.15661
      H1     9.78095  -17.40181  -13.69814

