105
frame 3 | Written by MDAnalysis XYZWriter (release 2.4.3)
       H     8.11934   16.15219    2.44867
       O     7.55546   16.47617    3.15263
      H1     7.07213   15.77812    3.45861
       H     2.47586   19.77294    0.43866
       O     2.36212   18.87098    0.13666
      H1     1.43060   18.67626    0.17416
       H    -2.17018   15.64083    1.76549
       O    -1.56460   16.28400    2.10519
      H1    -2.15254   17.05252    2.21971
       H     3.28784   20.09048    4.78639
       O     3.33495   19.19515    4.57353
      H1     3.54563   19.15104    3.67034
       H    -2.24135   15.17789    9.16039
       O    -2.49223   15.83749    8.47433
      H1    -2.16185   15.48090    7.70114
       H     4.07125   18.60048    7.01229
       O     3.62085   18.17598    7.78033
      H1     2.66289   18.39970    7.58570
       H     5.16465   17.45783   11.47941
       O     4.80844   16.61325   11.75574
      H1     4.87883   16.04237   10.97796
       H     8.19584   19.56131    8.64258
       O     7.26520   19.61752    8.45622
      H1     6.90338   19.30522    9.32465
       H     3.37707   15.15021    6.87282
       O     3.92266   15.36108    7.62835
      H1     3.84528   16.32105    7.65242
       H     2.99082   17.14981   -1.18712
       O     2.89711   17.11522   -2.17494
      H1     3.76628   16.69294   -2.46499
       H     0.62948   18.82552    3.39292
       O     1.03011   17.91143    3.58655
      H1     1.90748   18.06468    3.99805
       H     4.44392   14.49781    1.35310
       O     4.66759   15.26783    0.79002
      H1     4.55087   16.09987    1.40273
       H     1.92939   13.02668    5.63123
       O     2.08009   13.61219    6.37053
      H1     2.35256   13.02806    7.06244
       H    -0.12633   14.15097    2.60133
       O     0.71777   14.34881    2.14654
      H1     0.81873   15.24046    2.37291
       H     6.08994   18.40218   -2.05765
       O     5.87866   19.28658   -1.64454
      H1     4.95959   19.34764   -2.06662
       H     7.79936   18.04627    7.84814
       O     8.42188   17.30949    7.73898
      H1     8.01724   16.56164    8.20391
       H    -0.55767   17.10086    0.56469
       O    -0.26699   17.53587   -0.23896
      H1    -0.31878   17.07371   -1.05042
       H    -0.92951   18.74259    9.93214
       O    -0.70263   18.06424    9.31958
      H1    -1.41445   17.45700    9.12871
       H    -1.20719   13.34091    6.82791
       O    -0.61658   13.77319    7.42793
      H1     0.23840   13.57506    7.10024
       H     8.79985   16.44851    6.01600
       O     9.19708   16.12640    5.20497
      H1     8.43109   16.22868    4.57115
       H     5.90749   13.67499    3.40807
       O     6.79558   13.86716    3.84121
      H1     6.67577   13.58227    4.73399
       H     1.51208   15.44120   10.00644
       O     2.06809   14.80550    9.55971
      H1     2.38819   15.18240    8.76453
       H    -1.50530   18.92832   -0.63587
       O    -2.15347   19.36239   -1.26031
      H1    -2.67013   19.85098   -0.62245
       H     6.35290   19.45435    0.22382
       O     6.43618   19.03236    1.08877
      H1     7.03065   19.56600    1.63969
       H     0.38555   18.64077    8.15399
       O     1.00726   19.08489    7.52782
      H1     0.57828   18.84595    6.69292
       H    10.75930   18.24042    6.50545
       O    10.89742   18.11549    5.53556
      H1    10.35740   17.30351    5.28806
       H     8.12782   18.06791    0.02846
       O     8.79958   18.70931   -0.26961
      H1     8.20174   19.43894   -0.59466
       H     4.97127   18.44751    1.68871
       O     4.14289   18.02286    2.02467
      H1     3.53430   18.22029    1.30851
       H     6.57412   14.66537    9.26031
       O     5.75852   14.87538    9.75726
      H1     5.13629   15.00535    9.02996
       H     6.25344   12.65600    6.79562
       O     6.64445   13.42251    6.45924
      H1     5.95309   14.09483    6.57863
       H     0.68443   11.91885    4.07300
       O     1.58681   12.20312    3.81962
      H1     1.40389   12.95254    3.17973
       H    -0.08914   17.62033    4.68824
       O    -0.80998   17.43413    5.30436
      H1    -1.21143   16.65607    4.94064
       H    -3.03048   19.42448    5.31012
       O    -3.29678   18.57430    5.82083
      H1    -2.58645   17.92481    5.73126
       H     5.96669   19.42208   11.68344
       O     5.91829   19.16296   10.75509
      H1     5.07887   19.52781   10.45684
       H     5.13228   18.51251    4.37136
       O     6.01919   18.53245    4.75070
      H1     6.47287   17.71265    4.48314

