105
frame 7 | Written by MDAnalysis XYZWriter (release 2.4.3)
       H     2.89090   16.15994  -10.12361
       O     2.41323   16.00331  -10.91038
      H1     3.01274   15.40389  -11.40530
       H     2.31493    5.49645  -10.83225
       O     2.92404    4.80832  -10.69397
      H1     3.29707    4.94033   -9.77967
       H     1.05312   12.69761  -13.15916
       O     1.39219   12.52908  -12.28411
      H1     0.59562   12.18157  -11.81323
       H     2.28310   15.08851  -14.21469
       O     3.22876   15.33402  -14.03573
      H1     3.77700   14.73344  -14.57692
       H    -1.78651   13.49010  -13.80109
       O    -1.56551   13.87423  -12.93833
      H1    -0.68343   14.37928  -13.04164
       H     1.25920    9.72057  -10.00045
       O     0.62815    9.30063  -10.63529
      H1    -0.24629    9.64531  -10.38940
       H    -1.12174   10.10485  -14.16184
       O    -0.91231   10.83483  -14.74967
      H1    -1.73885   10.96092  -15.36085
       H     4.29769    9.39922  -11.60890
       O     5.19574    8.97490  -11.33169
      H1     5.90393    9.57453  -11.65767
       H     3.23264   10.03857  -16.82368
       O     3.67653    9.83026  -17.68097
      H1     4.46458   10.38893  -17.83622
       H     5.37762   13.60235  -13.66921
       O     5.84724   13.01926  -13.04523
      H1     5.42547   13.27067  -12.16830
       H     0.80381    7.43515  -10.77409
       O     0.84203    6.56026  -11.20723
      H1     1.05274    6.77722  -12.12043
       H     2.31018    9.02208  -18.59636
       O     1.57793    8.45135  -18.85732
      H1     1.03210    8.28594  -18.04523
       H     4.44483    6.44144  -13.09209
       O     4.80867    5.62243  -12.70760
      H1     4.30715    5.45083  -11.93707
       H     7.54371    6.75289  -10.27859
       O     7.54063    5.93951  -10.80063
      H1     6.67727    5.97799  -11.27710
       H    -1.56122   11.64073  -10.50051
       O    -1.05812   11.62049  -11.35613
      H1    -1.43282   12.23591  -11.95647
       H     2.09305    7.05317  -14.07981
       O     1.18729    6.70987  -13.87089
      H1     1.20838    5.79263  -14.25918
       H    -1.15371   10.83397   -8.11689
       O    -0.38197   10.64815   -7.55026
      H1     0.31653   10.47225   -8.19791
       H     5.29402   14.80608  -10.69613
       O     4.63559   14.12614  -10.82325
      H1     3.97802   14.28887  -10.16916
       H    -0.91407    7.62108  -16.58439
       O     0.07551    7.52627  -16.52095
      H1     0.34844    7.07991  -15.72367
       H     1.13340    9.49961  -15.76327
       O     2.02787    9.61483  -15.38342
      H1     1.84993    9.56779  -14.42278
       H    -1.43267    8.05757   -9.05754
       O    -1.99523    8.64148   -9.67881
      H1    -2.71245    9.04745   -9.14766
       H     3.58436   12.55202  -16.35766
       O     3.79469   12.46223  -15.37233
      H1     4.42524   11.74810  -15.32357
       H     7.24572   11.08390  -11.04716
       O     7.12021   10.76984  -11.93174
      H1     6.58438   11.51982  -12.25537
       H     1.72634   13.17754  -10.61371
       O     1.92071   13.40313   -9.69785
      H1     1.97405   14.38078   -9.75399
       H     5.10099    8.76973   -9.34345
       O     4.91519    8.37895   -8.45752
      H1     4.17893    7.74968   -8.50912
       H     1.84466   12.51662  -15.09781
       O     0.95839   12.91313  -14.96182
      H1     0.45782   12.07884  -14.98822
       H     6.48796   11.02075  -15.36176
       O     5.75461   10.44595  -15.11857
      H1     5.85812   10.32166  -14.11302
       H     4.91986    8.48279  -17.26806
       O     5.61948    8.16873  -16.77729
      H1     5.70967    8.77396  -16.03600
       H     5.83679   12.85442  -10.05219
       O     6.81989   12.68909   -9.97871
      H1     6.91136   12.43752   -9.07935
       H     6.88787    6.96690  -14.00023
       O     7.00225    7.84469  -13.68665
      H1     6.26482    7.96207  -13.06024
       H    -1.07713    7.52902  -12.78269
       O    -1.38914    8.45823  -12.96821
      H1    -1.21308    8.90297  -12.11446
       H     2.69118   10.65253  -13.07871
       O     2.63069    9.78202  -12.76192
      H1     1.78575    9.85889  -12.22170
       H     2.85724   10.55965   -8.16620
       O     2.24653   10.83385   -8.88883
      H1     2.36801   11.79651   -8.87664
       H     2.89523    6.24752   -7.85000
       O     2.43735    7.13137   -7.79860
      H1     1.53234    6.89949   -8.02172
       H     4.15417    7.68803  -15.33249
       O     3.69983    7.53807  -14.47994
      H1     3.48839    8.40366  -14.12700

