105
frame 0 | Written by MDAnalysis XYZWriter (release 2.4.3)
       H   -15.75084  -13.80782    8.57393
       O   -15.68414  -13.93624    7.62819
      H1   -15.67845  -13.03334    7.26725
       H   -15.59619  -11.34806   -0.77407
       O   -15.17285  -10.75451   -1.41558
      H1   -15.84944  -10.73210   -2.12831
       H   -16.98786   -7.27328    1.53206
       O   -16.13650   -7.72637    1.39498
      H1   -16.26056   -8.23863    0.61500
       H   -16.40550   -9.10782    3.80477
       O   -15.46444   -9.03869    3.59101
      H1   -15.40148   -8.67228    2.68073
       H   -14.40791   -8.98513    7.45707
       O   -14.94279   -9.15423    8.22591
      H1   -15.11174   -8.26861    8.54693
       H   -19.03053  -12.09502    2.16740
       O   -18.94281  -11.45058    1.41721
      H1   -18.81778  -10.52946    1.76736
       H    -9.93120   -8.03652    2.49154
       O   -10.55659   -7.99888    3.22577
      H1   -10.87180   -8.90870    3.39261
       H   -17.86618   -8.70719    6.79198
       O   -17.52887   -9.05757    7.61661
      H1   -16.55847   -9.02067    7.66126
       H   -18.40190  -13.97074    3.55857
       O   -18.13070  -13.04716    3.41241
      H1   -17.13597  -13.05360    3.36010
       H    -9.69841  -12.85108    4.48271
       O    -9.19491  -12.41115    3.77613
      H1    -9.08718  -13.02569    3.02752
       H   -11.81834  -12.90876    0.26137
       O   -11.12565  -12.47985   -0.25557
      H1   -11.47285  -11.56095   -0.32633
       H   -11.43433  -10.48885    4.97597
       O   -11.15141  -10.52585    4.03737
      H1   -10.52484  -11.29903    3.95996
       H   -17.30529  -11.84850    1.10367
       O   -16.38148  -12.07766    1.09413
      H1   -16.19172  -12.43422    1.99740
       H   -11.70422  -15.94775    3.00839
       O   -10.73713  -15.74280    3.00153
      H1   -10.61877  -15.10232    3.78756
       H   -11.44597  -14.00101    5.96437
       O   -10.61296  -13.88815    5.60242
      H1    -9.99350  -14.39866    6.10739
       H   -18.56033   -8.17243    4.23958
       O   -17.84924   -8.17570    4.93483
      H1   -17.41558   -7.33639    4.85423
       H   -10.25060  -11.65599    6.46066
       O   -10.18350  -10.73577    6.60018
      H1    -9.42275  -10.49193    6.01596
       H   -13.64773   -5.95356    5.02277
       O   -14.16686   -5.21093    5.40336
      H1   -13.74024   -4.72024    6.16244
       H    -8.65744  -10.27107    4.23577
       O    -8.25058   -9.63215    4.85058
      H1    -8.86171   -8.92134    5.03193
       H   -14.76196  -11.67648   10.51070
       O   -14.89650  -11.61814    9.52383
      H1   -14.63943  -10.73919    9.23123
       H    -8.69308   -6.41231    5.50782
       O    -9.55400   -6.89771    5.51104
      H1    -9.71308   -7.21924    4.57457
       H   -16.01070   -7.88482   -1.51015
       O   -16.96945   -7.98218   -1.46840
      H1   -17.24356   -7.07179   -1.57448
       H   -14.22605  -10.51146    3.34988
       O   -13.57251  -11.09349    2.83804
      H1   -12.73198  -10.99799    3.27531
       H   -12.08423   -9.13156    6.98206
       O   -12.72116   -9.38639    6.27501
      H1   -12.80844   -8.60970    5.76504
       H   -13.37640  -10.39933   -0.75635
       O   -12.46529  -10.12164   -0.43437
      H1   -12.46001  -10.26843    0.47480
       H   -18.01962  -14.82123   -1.13108
       O   -17.17144  -14.41943   -0.83187
      H1   -17.50008  -13.73029   -0.21858
       H   -11.87962   -5.65952    0.80090
       O   -11.25198   -5.27831    1.44052
      H1   -10.55640   -5.00266    0.83790
       H   -14.61646  -13.11702    2.95249
       O   -15.34120  -13.32569    3.56973
      H1   -15.13368  -12.80918    4.36155
       H   -12.59471   -7.37818    3.80841
       O   -13.36138   -7.56528    4.36613
      H1   -14.00986   -8.08053    3.89831
       H   -13.72083  -12.77462    0.19941
       O   -13.45436  -13.24659    0.98438
      H1   -13.71119  -14.21591    0.93990
       H   -13.98526  -13.79660    7.32618
       O   -13.09382  -14.09987    7.10165
      H1   -13.26746  -14.84228    6.51694
       H   -16.88403  -11.09890    6.06714
       O   -16.02613  -11.45278    6.22442
      H1   -15.47995  -10.74326    6.66066
       H   -14.84653  -15.02663    4.51839
       O   -14.49006  -15.65913    5.14190
      H1   -15.21007  -15.87595    5.75945
       H   -12.87105   -7.64838   -2.41489
       O   -12.81663   -7.41596   -1.46117
      H1   -12.81100   -8.32234   -1.07749
       H   -14.42407   -6.98237    0.93703
       O   -13.84209   -6.30867    0.62733
      H1   -13.47409   -6.60168   -0.19887

