105
frame 7 | Written by MDAnalysis XYZWriter (release 2.4.3)
       H     6.89791   -7.98032  -12.67229
       O     6.52469   -8.86806  -12.60347
      H1     7.22707   -9.47098  -12.83459
       H     6.38715   -5.74717  -13.33392
       O     7.06796   -6.14598  -12.74949
      H1     7.24211   -5.65549  -11.97129
       H     9.55941   -4.42895  -15.59991
       O     9.10230   -3.74014  -16.01615
      H1     8.44641   -3.46460  -15.33349
       H     9.64421   -7.02634  -16.31557
       O     9.79354   -7.50743  -17.14489
      H1     9.43189   -6.99189  -17.87338
       H     3.56892   -4.82522  -10.93477
       O     3.07028   -5.22506  -11.69614
      H1     2.28615   -5.60182  -11.18664
       H     3.54143   -3.87758  -18.80961
       O     4.20507   -4.50829  -18.56581
      H1     4.53090   -4.94830  -19.36531
       H     0.92536   -6.97132  -10.94675
       O     0.95471   -6.22917  -10.33240
      H1     1.27201   -6.53962   -9.50034
       H     4.76086   -3.25499   -9.66582
       O     3.87003   -3.62894   -9.51536
      H1     3.26511   -2.93371   -9.20683
       H     4.80230   -5.86986  -16.94502
       O     5.51150   -6.04723  -16.33411
      H1     6.22123   -5.65679  -16.82527
       H     3.71431   -9.47683  -16.36997
       O     3.31119   -8.62341  -16.46283
      H1     3.26806   -8.34052  -15.52176
       H     7.03930   -5.24659   -8.49438
       O     6.25729   -5.32155   -7.95855
      H1     5.82920   -4.49441   -8.05699
       H     4.54168    2.05702  -14.18159
       O     3.98791    1.28776  -14.09265
      H1     4.53885    0.56222  -14.47277
       H     6.62400   -3.22540  -14.16933
       O     7.38841   -2.66864  -14.35857
      H1     6.99605   -1.92936  -14.78230
       H     6.80752   -2.43770   -9.13653
       O     6.40349   -2.92848   -9.89488
      H1     6.57909   -2.33935  -10.67271
       H     2.84746   -2.02107  -11.81559
       O     3.33617   -2.64180  -12.38923
      H1     3.00043   -3.53539  -12.22128
       H     0.07721   -7.04977  -13.29502
       O     0.86567   -6.47963  -13.21869
      H1     1.51901   -6.90205  -13.81109
       H     6.91395    0.22449  -14.67104
       O     6.18623   -0.07213  -15.20692
      H1     5.85667    0.65218  -15.72541
       H     6.32195   -8.51039  -14.40106
       O     6.52127   -8.48623  -15.36752
      H1     6.14449   -7.62751  -15.70641
       H     4.79070   -8.44536  -17.97665
       O     5.14142   -8.43619  -18.90300
      H1     6.15167   -8.41537  -18.81625
       H     0.77157   -0.85215  -12.63749
       O     0.34060   -0.91306  -13.48367
      H1    -0.45619   -1.43220  -13.24046
       H     9.06155   -0.08637  -14.41943
       O     8.69806    0.74979  -14.25128
      H1     8.92710    1.00421  -13.31400
       H    10.69654   -1.57489  -13.79026
       O    10.39106   -1.31203  -14.65908
      H1    10.10810   -2.20215  -15.02569
       H     3.40308   -6.63749  -12.93573
       O     3.66373   -7.36068  -13.52582
      H1     4.11543   -7.92104  -12.94281
       H     4.42462   -3.68741  -13.81686
       O     5.17730   -4.30292  -14.03298
      H1     4.91692   -4.83396  -14.81259
       H     0.75750   -2.91824  -18.97397
       O     1.66386   -2.96403  -18.66898
      H1     1.73271   -2.28036  -18.01377
       H    10.18138   -6.54371  -13.92148
       O     9.46878   -6.17070  -14.51110
      H1     8.62325   -6.28150  -14.03456
       H     1.53047   -7.54616  -16.57202
       O     0.89164   -7.15351  -15.96062
      H1     0.99553   -6.19957  -15.94115
       H     2.19821   -3.42355  -15.84953
       O     1.75606   -4.25240  -16.01478
      H1     1.37339   -4.02915  -16.90589
       H     6.72044   -0.37301  -11.81457
       O     7.28167   -1.15353  -11.71320
      H1     7.23138   -1.67915  -12.47016
       H     2.35315   -1.02850  -15.09245
       O     3.02942   -1.70180  -14.87800
      H1     2.92063   -1.74210  -13.88551
       H     8.91728   -4.95126  -10.27137
       O     7.94776   -5.25195  -10.26143
      H1     7.38898   -4.45737  -10.14148
       H    -0.15566   -4.86049  -13.81148
       O    -0.51119   -4.39635  -14.58674
      H1     0.28062   -4.09936  -15.06604
       H     4.85529   -6.57108   -8.93820
       O     4.67756   -7.43092   -9.37193
      H1     5.59644   -7.77574   -9.49221
       H     8.13395   -4.42477  -17.31900
       O     7.55559   -4.94162  -17.89089
      H1     7.05183   -4.27153  -18.42582
       H     3.80614   -1.52038  -16.72448
       O     3.84704   -1.34675  -17.65499
      H1     4.02006   -0.39781  -17.82479

