105
frame 10 | Written by MDAnalysis XYZWriter (release 2.4.3)
       H     9.04717   -8.63607  -14.32962
       O     8.42629   -9.03911  -13.64477
      H1     8.66010   -9.99051  -13.83718
       H    16.86829  -12.18378  -17.39325
       O    17.70778  -12.06921  -16.96748
      H1    17.56203  -11.19329  -16.56806
       H    13.03445   -7.26200  -19.56596
       O    13.37795   -7.38129  -18.67412
      H1    14.08619   -8.05761  -18.74197
       H     9.12830  -19.61496  -17.25000
       O     8.76477  -19.46766  -16.33306
      H1     8.75634  -18.53325  -16.29502
       H     5.74127  -12.94547  -12.95479
       O     4.91012  -12.63604  -12.59548
      H1     4.65016  -11.94600  -13.18813
       H     3.98997  -11.50581  -17.11782
       O     3.22919  -11.30613  -17.68947
      H1     2.45778  -11.75519  -17.31118
       H    15.12506  -12.63173  -15.76190
       O    14.62227  -13.44056  -15.45644
      H1    15.08117  -14.14814  -15.88683
       H     7.27808  -15.28784  -17.18769
       O     7.74688  -14.46563  -17.17297
      H1     7.90227  -14.23385  -18.12925
       H    12.35165  -16.28212  -15.23330
       O    12.47624  -16.85688  -15.98950
      H1    12.69616  -17.81083  -15.85462
       H    10.02863   -5.25084  -17.82892
       O    10.63130   -5.99900  -17.94134
      H1     9.91953   -6.65166  -18.16158
       H     8.76676   -9.07376  -16.52069
       O     9.57679   -8.72226  -16.06708
      H1     9.43084   -7.73637  -15.93177
       H    14.38781  -16.43634  -16.14690
       O    15.35887  -16.31916  -16.17936
      H1    15.71060  -16.57589  -15.30079
       H    11.63245   -8.49828  -16.18254
       O    12.54473   -8.24010  -16.26113
      H1    12.72925   -8.02916  -17.18798
       H    12.92989  -11.92443  -19.80615
       O    13.21118  -11.07500  -19.39307
      H1    12.40643  -10.63927  -19.03145
       H     9.52468  -13.26829  -17.47384
       O    10.32777  -12.94516  -17.90046
      H1    11.16281  -13.35353  -17.51384
       H     8.81308  -15.47969  -12.10716
       O     9.13955  -15.10923  -11.30849
      H1     8.53380  -15.40976  -10.61583
       H     6.92317   -8.99238  -14.40144
       O     6.15262   -9.20065  -14.96557
      H1     5.45954   -9.49639  -14.45039
       H    12.19747  -14.08223  -10.63541
       O    12.52854  -13.33726  -11.20853
      H1    13.15160  -13.80574  -11.78929
       H     6.95334   -9.40102  -16.55179
       O     7.51805   -9.53886  -17.34911
      H1     7.26731   -8.85795  -17.96423
       H    10.33586  -11.16926  -11.22173
       O    10.64806  -10.45851  -11.79920
      H1    10.88180  -10.92506  -12.60404
       H    10.93539  -11.68725  -15.20997
       O    11.76940  -11.80764  -14.72080
      H1    12.51041  -11.26191  -15.11607
       H    10.70471  -16.89412  -16.30186
       O     9.80791  -16.95058  -16.52604
      H1     9.53534  -16.42386  -17.30724
       H    15.06342  -13.19185  -19.11208
       O    15.37907  -12.50786  -18.50524
      H1    14.61643  -11.84418  -18.65932
       H     6.91827  -11.03945  -18.22471
       O     6.77924  -11.96653  -18.45822
      H1     6.22988  -12.36056  -17.79612
       H    14.05623  -10.17623  -14.58010
       O    13.95281  -10.66214  -15.40865
      H1    13.73729   -9.94560  -15.99083
       H    11.56102  -15.01192  -13.28710
       O    12.31548  -15.15135  -13.88301
      H1    12.83562  -14.33683  -13.83193
       H     6.89822  -13.49333  -14.65324
       O     7.24053  -13.47504  -13.79021
      H1     7.82510  -14.23419  -13.65991
       H     6.77929  -16.92521  -13.83639
       O     6.03111  -17.17558  -14.37035
      H1     5.45098  -16.53137  -13.99626
       H    10.44523   -9.73669  -17.48816
       O    10.89694  -10.20502  -18.25874
      H1    10.52270  -11.17108  -18.20621
       H    15.69328  -14.27644  -12.31099
       O    14.79158  -14.29573  -12.59287
      H1    14.86451  -14.12882  -13.55549
       H     8.96451  -11.39974  -12.84287
       O     9.02884  -11.54286  -13.86013
      H1     8.32211  -12.26664  -13.95876
       H    13.18286  -13.81999  -16.55039
       O    12.66416  -14.30965  -17.20053
      H1    12.64564  -15.20747  -16.79877
       H     6.27727  -17.73166  -17.72452
       O     6.01594  -16.82823  -17.79668
      H1     5.66031  -16.69325  -18.71880
       H     6.21794  -13.61346  -16.36500
       O     5.71767  -12.90564  -15.88810
      H1     4.80663  -13.16400  -15.83351
       H     9.17016  -17.08062  -13.37404
       O     8.72809  -16.24436  -13.73192
      H1     8.99739  -16.23392  -14.69958

