105
frame 11 | Written by MDAnalysis XYZWriter (release 2.4.3)
       H   -11.81027    7.04152   -4.33722
       O   -11.00518    6.93600   -3.83605
      H1   -11.15609    6.66303   -2.87265
       H    -9.39203    8.37449   -7.48524
       O    -8.73687    7.94028   -8.04398
      H1    -9.12806    7.05717   -8.18674
       H    -7.28975    8.97682   -5.05387
       O    -6.65652    9.11903   -5.79320
      H1    -7.11246    8.85215   -6.61121
       H   -10.04120   11.07998   -7.62089
       O   -10.25753   10.22132   -7.29001
      H1   -10.23342   10.38501   -6.34143
       H    -3.57694    8.31140   -5.29342
       O    -4.00590    9.17691   -5.26083
      H1    -4.95570    9.11725   -5.31785
       H    -3.65753   10.00867   -3.40929
       O    -3.56058   10.84348   -2.91411
      H1    -3.90328   10.70657   -1.97829
       H    -8.10463   11.48678   -3.71350
       O    -7.93373   12.22791   -4.28922
      H1    -8.23199   11.95190   -5.16247
       H    -7.61048   13.36697    0.43304
       O    -7.17133   12.54221    0.33966
      H1    -6.34973   12.71261   -0.13168
       H   -13.72376   12.83331   -4.47860
       O   -14.30882   12.93547   -5.22117
      H1   -13.72014   13.04652   -6.00562
       H   -11.84384    9.22368   -7.99371
       O   -12.41360    8.47392   -8.00793
      H1   -13.29564    8.82633   -8.02392
       H   -11.40874   15.68869   -4.37315
       O   -12.21774   16.22210   -4.53334
      H1   -11.87156   17.13773   -4.57871
       H    -9.97180   15.71218   -7.53246
       O   -10.47139   15.99788   -8.29324
      H1   -11.35209   16.06367   -7.95348
       H    -6.04470   10.69333   -9.56465
       O    -5.62070   11.33417   -9.00578
      H1    -5.20342   12.02851   -9.52748
       H    -8.70287   16.45368   -5.96667
       O    -8.81071   15.46312   -5.81753
      H1    -7.94258   15.07784   -5.89958
       H    -7.82333   15.43950   -2.61670
       O    -7.23477   14.76800   -2.21047
      H1    -7.63782   13.95154   -2.54517
       H    -4.06720   15.69177   -5.53801
       O    -4.75313   16.30868   -5.24931
      H1    -4.52101   16.34040   -4.27523
       H    -4.84137   11.86022   -3.73585
       O    -5.31231   12.68301   -3.83445
      H1    -6.21832   12.45733   -3.88917
       H    -6.50585   15.18480   -8.67277
       O    -6.10525   15.45064   -9.55146
      H1    -5.44781   16.09694   -9.14285
       H    -9.77916   14.81011   -1.43335
       O    -9.95759   14.93523   -0.50673
      H1   -10.57870   15.68555   -0.53365
       H   -11.51704   11.06148   -1.67488
       O   -11.79955   11.43229   -2.51929
      H1   -12.47124   12.10925   -2.27884
       H    -8.86904   16.07044   -4.22206
       O    -8.97600   16.31939   -3.27198
      H1    -8.39292   17.14940   -3.15738
       H    -6.47804   13.62107   -6.70106
       O    -6.32564   14.59758   -6.81568
      H1    -5.82010   14.91303   -6.05640
       H    -4.20141   10.57487   -8.26419
       O    -3.49023    9.97560   -8.00614
      H1    -3.76440    9.65842   -7.13509
       H   -10.09461   12.83345   -9.52076
       O   -10.05029   12.57832   -8.52505
      H1   -10.94326   12.75938   -8.20612
       H   -13.20298   12.80842   -8.32399
       O   -12.63597   13.10017   -7.61510
      H1   -12.82001   14.07644   -7.50792
       H    -4.73786   13.31737   -1.65966
       O    -4.71359   13.14455   -0.74452
      H1    -4.32173   13.96103   -0.26766
       H   -11.13208   10.06184   -3.92990
       O   -10.44149    9.66709   -4.40273
      H1   -10.63967    8.75222   -4.16986
       H    -4.41497   16.40234   -1.63812
       O    -4.86247   16.13287   -2.45413
      H1    -5.57612   15.44944   -2.26648
       H    -7.03762   11.66545   -7.57517
       O    -7.69606   12.25196   -7.15149
      H1    -8.22865   12.53165   -7.92345
       H    -6.42001    8.30231   -9.87706
       O    -6.97780    9.10145   -9.77936
      H1    -7.59679    8.92023   -9.03821
       H    -2.69660   14.02508   -5.45621
       O    -2.68276   14.62540   -6.22473
      H1    -1.73419   14.86599   -6.30152
       H    -3.42743   13.14116   -3.89088
       O    -2.49799   13.38896   -3.94775
      H1    -2.08085   12.55103   -4.13633
       H    -8.11448   11.37823   -0.64496
       O    -8.59004   10.78730   -1.27165
      H1    -9.35018   10.53473   -0.71086
       H    -7.97879    9.51270   -2.30021
       O    -7.80752    8.89252   -3.06738
      H1    -8.63595    8.44690   -3.09350
       H   -10.79693   12.79279   -2.93467
       O   -10.22107   13.50853   -3.27171
      H1    -9.49319   13.02937   -3.71220

