105
frame 0 | Written by MDAnalysis XYZWriter (release 2.4.3)
       H    19.10109  -17.19724   -6.99434
       O    18.51737  -16.93226   -7.68031
      H1    17.67938  -17.19201   -7.33015
       H    14.04359  -17.57453  -16.18017
       O    13.20759  -17.17373  -15.97390
      H1    12.78264  -17.66464  -15.20281
       H    10.82119  -16.67791  -14.31199
       O    10.99496  -17.49335  -13.92513
      H1    10.93709  -17.31098  -12.95972
       H    15.93054  -14.05180  -15.60417
       O    15.97551  -13.16268  -15.97501
      H1    16.79375  -12.75110  -15.65961
       H     8.26187  -17.03461   -9.03375
       O     8.86937  -16.35846   -9.33942
      H1     8.63078  -15.95752  -10.19720
       H    16.78802  -16.11478   -5.67797
       O    17.03866  -16.96603   -5.28008
      H1    16.34927  -17.54731   -5.58216
       H    14.37968  -15.90484  -15.10436
       O    15.03628  -15.38293  -14.61930
      H1    15.57895  -16.09137  -14.14820
       H    12.15145  -12.85995   -8.98030
       O    11.36954  -13.04559   -8.44753
      H1    11.24680  -14.00128   -8.40814
       H    13.49716  -13.02051  -10.92404
       O    13.28041  -12.21569  -10.43901
      H1    14.13395  -11.71955  -10.40793
       H    13.06298  -19.31008   -8.90128
       O    13.82885  -19.44828   -9.49657
      H1    13.96303  -18.52149   -9.86887
       H    14.05289  -14.37232  -12.56731
       O    13.87622  -14.55376  -11.61490
      H1    14.71714  -14.39422  -11.16986
       H    10.79575  -19.70563   -8.29784
       O    11.61491  -19.26707   -7.94067
      H1    11.36778  -18.40881   -8.25131
       H    11.57216  -18.01457   -5.77672
       O    12.10484  -17.80435   -5.05461
      H1    12.85748  -17.30142   -5.51909
       H    13.02004  -19.59592  -11.36478
       O    12.24928  -19.58884  -11.96439
      H1    12.71015  -19.55667  -12.81347
       H    13.41272  -15.33118   -6.24156
       O    14.16347  -15.88573   -6.49196
      H1    14.18966  -15.86674   -7.44381
       H    15.61428  -14.60631   -6.02132
       O    16.25572  -13.89807   -6.24171
      H1    16.12790  -13.22240   -5.57397
       H    11.85471  -16.05594   -9.76566
       O    11.42028  -16.10707   -8.91964
      H1    10.45366  -16.22642   -9.13751
       H    18.62989  -12.56948   -9.13238
       O    18.88416  -12.91707   -9.97920
      H1    19.48749  -13.71574   -9.83331
       H    16.29887  -15.29322   -9.33603
       O    15.48876  -14.79247   -9.23175
      H1    15.67628  -14.12463   -8.53115
       H    11.90835  -13.99992   -4.67135
       O    11.80089  -14.08877   -5.66528
      H1    11.65455  -13.18978   -5.90883
       H    11.86905  -11.51648  -11.27844
       O    11.14342  -10.96731  -11.54873
      H1    11.48241  -10.34723  -12.19931
       H    14.81138  -10.03885  -14.88958
       O    14.76048  -10.35942  -13.95997
      H1    14.39339  -11.22631  -14.12549
       H    18.27557  -13.58550   -5.87236
       O    19.12471  -14.02749   -5.80936
      H1    19.13527  -14.70186   -6.50156
       H    12.64926  -12.63083  -14.78351
       O    13.56846  -12.63968  -14.33514
      H1    14.16596  -12.93399  -15.03470
       H    19.19742  -17.58950   -9.42164
       O    19.48207  -17.53820  -10.34660
      H1    19.98781  -16.71470  -10.31314
       H    15.66168  -10.86845   -8.92781
       O    15.35102  -10.63435   -9.83934
      H1    16.11379  -10.69312  -10.41480
       H    12.10209  -15.36974  -11.95885
       O    11.18516  -15.56529  -11.68096
      H1    10.66383  -15.43692  -12.47369
       H     9.39436  -13.95931  -12.08673
       O     9.23102  -13.01973  -12.30052
      H1    10.05318  -12.55873  -12.10796
       H    17.95876  -13.58326  -11.73985
       O    17.60719  -13.14112  -12.52285
      H1    17.99235  -13.56284  -13.27517
       H    16.13353  -18.34512  -12.36648
       O    15.33419  -18.01806  -12.84403
      H1    15.40105  -18.49839  -13.67054
       H     8.68861  -14.71714   -6.96534
       O     8.97355  -14.89076   -6.11193
      H1     9.90951  -15.00268   -6.17374
       H    17.09068  -11.48050  -12.17620
       O    16.93369  -10.52491  -11.96175
      H1    16.19263  -10.38202  -12.58815
       H     7.70913  -15.28788  -12.73652
       O     8.22580  -15.50930  -11.98510
      H1     8.55529  -16.39669  -12.18059
       H    18.22412  -18.53589  -10.91188
       O    17.47689  -19.02096  -11.28162
      H1    17.02162  -19.34199  -10.49490
       H    14.42892  -16.17651  -10.11540
       O    13.98888  -16.98762  -10.44071
      H1    14.09951  -17.01438  -11.35052

