105
frame 3 | Written by MDAnalysis XYZWriter (release 2.4.3)
       H     7.77732  -18.23694   -3.98675
       O     7.98020  -19.04049   -4.50619
      H1     7.24694  -19.66193   -4.34148
       H    13.33418  -18.03390   -6.16741
       O    12.55200  -18.49197   -6.51499
      H1    11.67845  -18.08714   -6.18075
       H     3.48965  -11.54897   -4.73222
       O     2.54471  -11.60968   -4.65121
      H1     2.44703  -12.54182   -4.43682
       H     6.61826  -12.75513  -11.30677
       O     5.78243  -12.74215  -11.75614
      H1     5.89066  -12.62293  -12.69403
       H     8.55593  -14.18678   -1.85854
       O     7.94903  -14.38210   -2.61858
      H1     8.51324  -14.39566   -3.36255
       H     6.49467  -10.48795   -0.98470
       O     7.45205  -10.65665   -1.11455
      H1     7.48536  -10.52731   -2.04737
       H     6.39235  -13.92417   -4.03627
       O     5.51533  -13.53381   -4.30337
      H1     4.88672  -14.24660   -4.20959
       H     8.29381  -17.00571   -9.12314
       O     8.33108  -16.09920   -9.55435
      H1     8.12804  -16.33743  -10.45803
       H     7.83096  -17.41264   -5.98012
       O     7.08354  -16.75127   -5.93042
      H1     7.58580  -15.96953   -6.10971
       H     5.36467  -11.61128   -8.92574
       O     6.24089  -11.84263   -8.62008
      H1     6.43572  -11.23863   -7.93980
       H    11.46934  -11.84055   -8.65545
       O    10.53930  -12.15522   -8.64651
      H1    10.65441  -13.11946   -8.74993
       H     6.08204  -13.80631   -8.72551
       O     6.15119  -14.72616   -8.45311
      H1     6.90926  -15.02726   -8.99983
       H    12.07673  -11.46801   -4.81259
       O    11.62816  -10.65329   -5.05962
      H1    10.81070  -10.78914   -5.59429
       H     9.45822  -19.15636   -6.33057
       O     9.60603  -18.44594   -6.96231
      H1     9.97488  -18.80147   -7.77386
       H     5.30876   -9.79696   -4.22915
       O     5.18614  -10.54307   -4.85175
      H1     5.49380  -11.39979   -4.40199
       H     7.05242  -15.91234   -2.80222
       O     6.52788  -16.69437   -3.07575
      H1     6.44497  -16.72669   -4.08604
       H    10.30223  -17.11121   -5.70929
       O    10.88070  -16.72385   -5.03814
      H1    11.28206  -15.96242   -5.50670
       H     8.65695  -11.17365   -6.17990
       O     9.37010  -11.80759   -6.21024
      H1     9.55243  -11.79366   -7.21554
       H    11.05247  -14.00353   -6.04869
       O    11.80995  -14.52171   -6.30814
      H1    11.52736  -14.92306   -7.13041
       H    13.49759  -14.47539   -6.45119
       O    14.44975  -14.37220   -6.54761
      H1    14.65397  -13.49335   -6.23445
       H    11.45621  -15.38312   -9.20934
       O    10.70969  -14.93766   -8.75494
      H1     9.94823  -15.41973   -9.13966
       H     7.00025  -19.84057   -9.62124
       O     7.32258  -19.27101   -8.88112
      H1     6.58751  -19.16361   -8.25083
       H    10.64330  -18.42190   -2.31624
       O    10.40929  -17.49611   -2.21637
      H1    10.73468  -17.19946   -3.07205
       H    13.19264  -13.76683   -3.34560
       O    13.07622  -12.78335   -3.34336
      H1    13.90736  -12.35423   -3.11894
       H    10.15296  -10.86862  -10.30263
       O    10.64132  -10.40737  -11.03807
      H1    11.05493  -11.11702  -11.56484
       H     4.01972  -17.16471   -1.10682
       O     4.37095  -16.47691   -1.62449
      H1     5.08269  -16.77182   -2.11995
       H     6.39015  -10.05619   -6.25315
       O     7.17919  -10.03659   -6.81609
      H1     7.08357   -9.56109   -7.63348
       H     3.62632  -15.99307   -3.26715
       O     3.34780  -15.55373   -4.03303
      H1     2.53413  -15.12599   -3.80712
       H     3.36951  -14.66812   -9.96723
       O     3.50175  -14.88906   -9.05570
      H1     4.47029  -14.88340   -8.94533
       H     9.26548  -13.46800  -11.07145
       O     8.63128  -12.78501  -10.80665
      H1     8.69189  -12.85834   -9.84711
       H     2.87219  -15.48405   -7.28765
       O     2.58684  -16.07105   -6.59426
      H1     3.04386  -15.82935   -5.72958
       H     3.35785  -12.45881   -2.08671
       O     4.27918  -12.48271   -1.80861
      H1     4.78180  -12.75380   -2.57850
       H     7.47811  -14.15051   -7.11444
       O     8.22287  -14.25350   -6.53276
      H1     8.48273  -13.34456   -6.34869
       H     4.39090  -18.60149   -7.52861
       O     5.08098  -18.97029   -6.92929
      H1     5.50956  -18.19139   -6.57044
       H     9.77798  -10.05696   -2.55999
       O     9.19370   -9.40584   -3.03037
      H1     9.51499   -9.38120   -3.92543

