105
frame 1 | Written by MDAnalysis XYZWriter (release 2.4.3)
       H    -5.35617   -3.58093  -11.00131
       O    -5.04454   -4.09350  -10.20332
      H1    -4.15544   -3.91909  -10.05128
       H    -5.73929   -7.96234   -2.63323
       O    -5.32398   -8.39131   -1.88249
      H1    -5.14897   -7.61155   -1.37547
       H    -7.75662  -10.82828  -11.15854
       O    -7.26414  -10.40279  -11.90134
      H1    -6.43500  -10.11214  -11.51392
       H    -3.21990   -5.56688   -5.53382
       O    -4.11938   -5.73084   -5.20623
      H1    -4.49568   -6.49743   -5.72399
       H    -1.16436   -5.39747   -6.28798
       O    -1.50389   -4.72861   -5.66519
      H1    -0.85351   -4.59936   -4.89679
       H    -9.60395   -7.32784   -5.42494
       O    -9.36147   -7.52429   -4.48841
      H1    -9.80267   -6.77428   -4.03698
       H    -5.97899   -5.53828   -9.15460
       O    -6.09145   -6.34501   -8.72550
      H1    -6.73016   -6.07768   -8.03029
       H    -7.81302   -2.72100   -3.80236
       O    -7.36110   -2.17063   -4.43966
      H1    -6.68429   -2.69318   -4.92879
       H   -10.09678   -6.38940   -7.48836
       O   -10.16863   -7.27493   -7.12449
      H1   -10.75027   -7.72372   -7.72062
       H    -3.10679  -10.94630   -4.52954
       O    -3.03547  -11.13019   -5.45307
      H1    -2.45791  -10.44506   -5.85035
       H    -4.73077   -7.81974  -11.40912
       O    -5.08743   -8.63784  -10.97825
      H1    -4.92736   -8.46928  -10.08474
       H    -1.39905   -4.21724   -9.62324
       O    -2.13577   -4.02890   -9.06393
      H1    -1.80724   -3.47772   -8.35980
       H    -8.39833   -7.35617  -10.74560
       O    -8.41768   -6.89411   -9.90980
      H1    -7.49363   -7.08596   -9.57577
       H    -5.18257  -13.36725  -10.00182
       O    -4.44695  -12.74206  -10.01118
      H1    -4.34002  -12.64227   -9.08393
       H    -7.62846   -7.41833   -3.97787
       O    -6.70811   -7.23788   -3.90299
      H1    -6.26276   -7.50153   -4.71837
       H    -8.48966   -8.90637   -1.11636
       O    -8.01263   -8.11385   -0.82339
      H1    -7.05508   -8.27416   -1.02455
       H    -8.49435  -10.96692   -5.28356
       O    -7.48502  -10.98791   -5.43312
      H1    -7.22310  -11.43136   -4.61946
       H    -5.33461   -7.39773   -7.15770
       O    -5.58278   -7.79520   -6.29419
      H1    -5.77181   -8.73498   -6.57994
       H    -6.17639   -5.33527   -3.48983
       O    -6.15837   -4.51772   -3.01737
      H1    -5.42886   -3.94603   -3.30991
       H    -3.92378  -12.07630   -6.61925
       O    -4.56351  -12.55763   -7.21319
      H1    -5.22666  -11.86501   -7.25616
       H    -1.14555   -9.94452   -8.25689
       O    -1.46728  -10.00309   -7.34049
      H1    -1.10081  -10.80554   -7.02232
       H    -8.76027  -10.96994   -2.41040
       O    -9.24092  -10.18267   -2.36319
      H1    -8.94223   -9.56443   -3.03808
       H    -7.80233  -12.81260   -2.38014
       O    -7.26305  -12.20294   -2.95632
      H1    -6.54014  -12.04630   -2.34813
       H    -4.29877   -5.75769  -10.91098
       O    -3.93478   -6.26508  -11.64076
      H1    -4.05618   -5.80448  -12.48949
       H    -9.45642   -3.89236   -8.24231
       O    -9.65129   -4.83873   -8.15358
      H1    -9.23186   -5.32980   -8.83617
       H    -1.97992   -7.75764   -5.93894
       O    -2.31420   -7.88572   -5.07523
      H1    -2.89549   -7.10824   -4.85982
       H    -4.12955   -5.55711   -0.57388
       O    -5.01591   -5.92114   -0.70642
      H1    -5.28725   -5.42350   -1.44053
       H     0.00682   -7.65034   -7.21654
       O    -0.85591   -7.09846   -7.33097
      H1    -1.47522   -7.44583   -7.97521
       H    -6.88186  -10.35519   -6.99233
       O    -6.22254  -10.16290   -7.75567
      H1    -6.78070  -10.33428   -8.51948
       H    -2.15396   -8.49413   -9.87899
       O    -2.73944   -8.18579   -9.14329
      H1    -2.68760   -8.80002   -8.42342
       H   -10.48990   -9.35320   -5.43740
       O   -10.52455  -10.28530   -5.14138
      H1   -10.49140  -10.81039   -5.94977
       H    -7.95744  -12.53134   -9.44901
       O    -7.89404  -11.54953   -9.47909
      H1    -8.58685  -11.21854   -8.85680
       H     0.03195   -8.35889   -2.93055
       O    -0.78205   -7.87771   -2.85963
      H1    -1.11611   -7.86745   -3.76161
       H    -4.02662   -9.98733   -2.56127
       O    -3.40609  -10.71088   -2.67285
      H1    -2.51054  -10.52928   -2.28633
       H    -5.43887   -4.50035   -5.96681
       O    -5.74531   -3.82741   -6.60271
      H1    -5.12290   -3.94895   -7.32092

