105
frame 0 | Written by MDAnalysis XYZWriter (release 2.4.3)
       H    -1.61240  -10.97287   -0.76307
       O    -1.57299  -11.59261   -1.46302
      H1    -1.59996  -12.44265   -1.11120
       H     0.65792   -7.42675    1.46991
       O     0.08791   -7.65224    0.69343
      H1     0.50160   -7.32846   -0.08649
       H    -4.73799   -7.50878   -2.86660
       O    -4.60620   -7.99083   -2.02873
      H1    -4.60138   -7.25793   -1.35677
       H     3.56592   -5.49145   -6.09530
       O     3.37030   -4.74507   -6.69211
      H1     2.91848   -5.01284   -7.51159
       H     1.34685  -13.01208   -6.54004
       O     0.71632  -13.25997   -7.26869
      H1     0.44636  -14.14107   -7.13187
       H    -0.52047   -5.90664   -1.36903
       O     0.34101   -5.99340   -1.76763
      H1     0.26766   -6.67276   -2.48800
       H     0.06737   -4.82089   -3.03082
       O    -0.12281   -4.18343   -3.75047
      H1     0.71895   -3.91172   -4.12308
       H    -3.63377   -5.07606   -6.03795
       O    -4.32948   -5.24625   -6.67721
      H1    -4.54008   -6.18288   -6.77331
       H     2.79738  -11.57420   -5.52366
       O     1.88265  -11.41893   -5.73998
      H1     1.30007  -11.54141   -4.96879
       H    -1.30927   -5.12400   -6.40474
       O    -1.88048   -4.83365   -5.64510
      H1    -1.14158   -4.67464   -5.01589
       H    -1.92487   -5.18599    0.32888
       O    -1.99331   -5.09782   -0.63534
      H1    -1.74215   -4.19424   -0.81058
       H     1.34360  -10.28136    2.14628
       O     1.39164  -10.10920    1.19692
      H1     1.00520   -9.24388    1.18275
       H    -2.59896  -14.61070   -4.39263
       O    -2.75414  -13.71818   -4.14157
      H1    -2.84618  -13.06371   -4.90059
       H    -0.58164  -12.12516   -3.36268
       O     0.37056  -11.97288   -3.45829
      H1     0.60789  -11.47221   -2.67940
       H    -0.30348   -2.06568   -1.15656
       O    -0.87687   -2.54056   -1.81620
      H1    -0.29663   -3.13633   -2.35090
       H    -3.02199  -10.93598   -4.91042
       O    -2.96958  -11.57160   -5.62385
      H1    -2.21054  -11.38451   -6.14935
       H     3.40652  -10.77487   -7.89914
       O     2.68854  -10.49062   -8.50328
      H1     1.82379  -10.62060   -8.06360
       H     4.04804   -7.86149   -5.81684
       O     3.85693   -7.13520   -5.26704
      H1     2.88285   -7.17310   -5.16658
       H    -1.69209   -8.52888   -1.38762
       O    -1.89453   -8.94823   -0.55528
      H1    -1.22937   -8.46600   -0.00038
       H     1.86103   -7.64636   -7.29799
       O     1.45904   -7.61412   -6.43859
      H1     0.58070   -8.04107   -6.45882
       H    -6.78797   -7.07460   -4.26520
       O    -5.83590   -6.99209   -4.47884
      H1    -5.72779   -7.24982   -5.42210
       H     4.23048   -7.61370   -2.22528
       O     3.67899   -8.32542   -2.53598
      H1     3.72971   -8.17981   -3.47327
       H    -4.34422  -11.68072   -6.84543
       O    -5.09064  -12.17429   -7.36693
      H1    -5.56372  -11.44694   -7.72576
       H    -0.91216  -10.91642   -8.21311
       O    -0.89501  -11.16156   -7.30818
      H1    -0.44698  -12.05692   -7.29462
       H    -4.33309  -10.33414   -1.36988
       O    -4.86009  -10.84759   -0.73585
      H1    -4.71056  -11.75731   -1.04272
       H     2.11914  -15.22062   -3.68554
       O     1.74438  -14.57429   -4.33181
      H1     1.25420  -13.91175   -3.91144
       H    -1.46678   -9.07734   -6.23078
       O    -1.22295   -8.41588   -5.61771
      H1    -1.76372   -7.69261   -5.78314
       H    -4.21186   -8.53092    1.70328
       O    -3.34406   -8.14096    1.64851
      H1    -3.05629   -8.38329    0.75968
       H    -3.92021   -5.38478   -0.23044
       O    -4.84156   -5.65559   -0.31308
      H1    -5.15893   -5.34054   -1.12169
       H     0.40414   -6.26982   -6.91487
       O    -0.27347   -5.81061   -7.56458
      H1    -0.83378   -6.51858   -7.93478
       H     3.98732  -11.34817   -2.95743
       O     3.67967  -11.42099   -2.04900
      H1     3.17271  -10.60175   -1.88733
       H    -1.37658   -8.03024   -8.90390
       O    -1.98759   -7.72789   -8.27558
      H1    -2.83755   -7.65754   -8.73742
       H    -0.04721   -9.04593   -2.55599
       O    -0.63319   -8.30073   -2.95139
      H1    -0.78403   -8.55741   -3.85583
       H    -3.42413   -9.28925   -2.66139
       O    -3.24067  -10.13130   -3.04080
      H1    -2.44513  -10.43883   -2.59349
       H     1.19723  -10.08529   -0.71992
       O     1.34700   -9.87030   -1.69349
      H1     1.98838   -9.16894   -1.72109

