105
frame 6 | Written by MDAnalysis XYZWriter (release 2.4.3)
       H   -17.20036   11.53995   -9.45491
       O   -17.26918   10.68375   -8.93050
      H1   -18.21051   10.61681   -8.71686
       H   -16.91429   12.95424   -4.31691
       O   -17.71500   12.86043   -3.78405
      H1   -17.86965   11.94185   -3.71188
       H   -13.05782   14.00837  -10.35709
       O   -13.32951   13.70830   -9.44040
      H1   -14.11977   13.14534   -9.55363
       H   -13.95320   11.63717  -12.37678
       O   -13.87975   11.39453  -11.44163
      H1   -14.63740   11.87045  -10.94339
       H   -15.38880   13.39477  -13.20945
       O   -16.21609   13.66858  -12.83374
      H1   -16.05588   14.40170  -12.23038
       H   -11.84463   20.03288   -4.97813
       O   -11.10908   19.56420   -4.62133
      H1   -11.23336   18.66342   -4.32268
       H   -19.64404   17.34044   -3.81960
       O   -18.99867   16.68543   -3.52332
      H1   -19.09661   16.67116   -2.53531
       H    -9.72485   17.21852   -9.60352
       O   -10.09213   17.31892  -10.50787
      H1    -9.31399   17.68330  -10.96119
       H   -17.64238   18.20774   -5.86648
       O   -17.30080   19.00221   -5.51210
      H1   -17.67891   19.80378   -5.82329
       H   -17.73831   16.39211  -13.84761
       O   -17.89623   16.17562  -14.75279
      H1   -18.09108   16.96641  -15.29315
       H   -12.98535   13.19641   -4.94270
       O   -13.18885   13.80610   -5.66219
      H1   -12.35073   13.83364   -6.19252
       H   -15.35089   19.78557  -16.45172
       O   -14.62724   19.25599  -15.98883
      H1   -14.78187   18.33436  -16.15761
       H   -15.89469   16.94144   -3.74511
       O   -15.85222   15.96801   -3.52629
      H1   -16.77471   15.75599   -3.27996
       H   -18.65072   19.61024  -12.12995
       O   -19.08127   18.96994  -12.68588
      H1   -19.61962   18.33064  -12.11938
       H    -9.33093   18.96831   -9.44996
       O    -8.67487   19.58512   -9.21380
      H1    -7.84755   19.14634   -8.98159
       H   -10.14846   16.78054   -6.73380
       O   -10.83598   16.53854   -7.38562
      H1   -11.61828   16.58144   -6.82777
       H   -16.35467   13.14529  -10.96417
       O   -15.98208   12.82221  -10.11894
      H1   -16.44417   13.18378   -9.30978
       H   -14.43700   15.61874  -12.74301
       O   -14.16491   15.56806  -11.77942
      H1   -13.31023   15.14276  -11.87914
       H   -15.98414   18.81113  -12.38385
       O   -16.48770   17.99291  -12.49785
      H1   -17.37523   18.44434  -12.53791
       H   -14.14340   16.68796   -7.16022
       O   -13.50403   16.59079   -6.41550
      H1   -13.83713   15.86076   -5.90463
       H   -19.33765   13.99626  -11.89850
       O   -18.78183   13.97582  -11.08806
      H1   -18.79515   14.90172  -10.78970
       H   -18.70285   16.11263   -5.48217
       O   -18.45119   16.40660   -6.35366
      H1   -17.84719   15.74170   -6.65781
       H   -16.43939   18.56703  -10.29791
       O   -16.68143   18.28906   -9.42444
      H1   -16.40135   19.00057   -8.85484
       H   -18.44802   18.42890  -17.13540
       O   -17.98689   18.37498  -16.24666
      H1   -17.13785   18.26488  -16.60044
       H   -12.08465   13.80531   -8.13651
       O   -11.23794   13.99421   -7.67757
      H1   -11.00952   14.90076   -7.84680
       H   -15.54591   18.70469   -4.98967
       O   -14.68306   18.40229   -4.55171
      H1   -14.25084   17.81427   -5.21339
       H   -18.31382   17.45116   -9.49529
       O   -18.88748   16.69794   -9.52153
      H1   -19.13346   16.53408   -8.60827
       H   -15.59019   16.67512   -9.42414
       O   -15.01756   16.22154   -8.81986
      H1   -14.50988   15.53021   -9.17892
       H   -12.35196   16.86492  -15.18980
       O   -12.21094   16.81801  -14.24618
      H1   -12.95975   17.13957  -13.75352
       H   -15.57904   11.96898   -6.10031
       O   -15.73553   12.89821   -5.93398
      H1   -14.88978   13.32786   -6.04564
       H   -10.78192   17.64817  -14.27164
       O   -10.03016   18.28694  -14.22652
      H1   -10.47448   19.07006  -13.91593
       H   -11.47737   20.01547  -10.69508
       O   -12.03768   19.37675  -10.17498
      H1   -11.55149   18.53175  -10.36790
       H   -11.41935   14.77448  -12.58189
       O   -11.46061   14.89635  -11.60987
      H1   -11.48649   15.87381  -11.41470
       H   -15.89463   16.17364  -14.93662
       O   -15.16121   16.63228  -14.52292
      H1   -15.53749   17.24869  -13.87619
       H   -16.06972   15.00028   -8.17123
       O   -16.78584   14.42130   -7.86285
      H1   -16.29712   13.91968   -7.12154

