105
frame 9 | Written by MDAnalysis XYZWriter (release 2.4.3)
       H     4.69938   12.07787   18.79711
       O     4.31364   12.46713   17.97781
      H1     5.08861   12.60767   17.42724
       H     2.20976   15.97693   15.86666
       O     1.79391   15.64274   16.66058
      H1     2.45614   15.41279   17.26449
       H     3.89195   14.52426   14.46018
       O     4.41494   13.75413   14.18840
      H1     4.24380   13.74276   13.25678
       H    -5.72035   15.71888   12.64480
       O    -6.03644   15.82020   13.55377
      H1    -6.68290   15.08362   13.69748
       H     4.84117   17.21988   11.98354
       O     4.37833   17.84564   11.36034
      H1     3.90588   17.25088   10.79005
       H    -0.62948   10.46324   18.59552
       O    -0.61925   11.42917   18.55808
      H1    -0.69626   11.57499   17.59220
       H    -4.19902   13.45586   19.38402
       O    -4.15422   12.95457   18.54978
      H1    -3.93640   12.03837   18.88884
       H     0.27141   15.22808   19.48795
       O    -0.09950   15.74317   18.77092
      H1     0.57479   15.98635   18.11683
       H     3.94629   14.30496   18.71117
       O     3.71015   15.26345   18.69625
      H1     3.73931   15.50583   19.66061
       H    -5.54510   12.52915   13.23109
       O    -6.25720   12.13590   12.70593
      H1    -5.99330   12.34672   11.78645
       H     0.55731   10.31450   11.26621
       O    -0.07279   11.03750   11.38340
      H1    -0.44429   11.18375   10.52164
       H    -1.64907   10.29786   12.25105
       O    -2.45420    9.93175   12.61871
      H1    -2.58959   10.29534   13.51191
       H     2.34900    9.83514   14.56664
       O     2.17400    9.18599   15.25602
      H1     2.77947    9.47366   15.98278
       H    -2.23544   16.20808   11.62944
       O    -1.49636   15.81401   11.23641
      H1    -1.82502   15.63042   10.37140
       H    -0.43698   14.44255   17.14332
       O    -0.98114   14.12853   16.48101
      H1    -1.73904   14.74339   16.56292
       H     0.50286   18.82821   13.42887
       O     0.15589   18.59534   14.31038
      H1     0.18593   17.61629   14.34464
       H    -0.40404   15.12782   14.97065
       O    -0.58135   15.84145   14.29449
      H1    -0.72582   15.28077   13.48937
       H     0.45627   15.45072   11.72982
       O     1.34208   15.19972   11.98095
      H1     1.27439   14.28938   12.32266
       H     1.27931   18.63144   15.75777
       O     2.17371   18.57430   16.13890
      H1     2.13642   17.71430   16.62853
       H    -3.90439   16.92218   11.91919
       O    -3.41915   17.20800   12.73085
      H1    -3.29210   18.19036   12.70654
       H    -1.16635   18.84980   18.26570
       O    -1.71818   18.03370   18.51080
      H1    -1.08475   17.31600   18.56977
       H     2.50145   15.39390   10.27876
       O     3.25352   15.86502    9.83254
      H1     2.94805   16.16418    8.92366
       H    -1.52616   19.05473   13.11414
       O    -2.27720   19.63616   12.81576
      H1    -2.36513   20.20717   13.60367
       H     1.51920   12.38405   13.48285
       O     0.69063   12.89125   13.26730
      H1     0.22979   12.38358   12.60275
       H    -3.48963   11.30245   15.12893
       O    -2.95609   10.47323   15.19130
      H1    -2.06599   10.73489   15.50311
       H    -4.19568   15.74348   10.14567
       O    -4.96592   16.20705   10.63047
      H1    -5.08255   17.06937   10.20321
       H    -2.46255   10.70223   18.97118
       O    -3.33957   10.52275   19.35849
      H1    -3.47218    9.60442   18.99518
       H    -2.43784   18.28578   16.98716
       O    -2.69210   18.50745   16.06618
      H1    -3.12246   17.69010   15.77842
       H    -3.96704   13.43250   15.16959
       O    -4.46076   12.70513   14.84413
      H1    -5.08134   12.57859   15.58353
       H     0.74077   19.56190   19.11918
       O     0.63694   19.54892   18.15528
      H1     1.28265   18.87110   17.84337
       H     0.35451   10.72570   15.55190
       O    -0.42174   11.24773   15.77826
      H1    -0.31767   12.12523   15.44819
       H    -2.90303   16.09346   14.51780
       O    -3.56081   15.92726   15.19635
      H1    -4.36373   15.90757   14.65353
       H     3.70944   10.97134   13.10942
       O     3.11889   11.39245   13.78025
      H1     3.68397   12.08667   14.21479
       H     2.81830   17.26111   13.91277
       O     2.65216   16.32160   14.12810
      H1     2.15117   15.91356   13.35303
       H    -5.57846   12.46011   17.44615
       O    -6.26256   12.04625   16.87313
      H1    -7.00931   12.66461   16.87679

