105
frame 8 | Written by MDAnalysis XYZWriter (release 2.4.3)
       H     7.01151   -6.23868  -12.90190
       O     7.84954   -6.65277  -12.63998
      H1     8.04771   -6.44413  -11.75288
       H     8.97857   -4.50944  -15.09047
       O     8.65622   -3.61804  -14.95020
      H1     7.75374   -3.59083  -14.60969
       H     9.30990   -6.94129  -17.06738
       O     9.61790   -7.23673  -17.93941
      H1     9.49507   -6.48707  -18.54729
       H     3.13240   -4.56757  -10.58849
       O     2.63045   -4.59926  -11.37538
      H1     1.87024   -5.18605  -11.38603
       H     3.23309   -4.38931  -17.99884
       O     3.99514   -4.89170  -17.78419
      H1     4.02859   -5.80013  -18.10978
       H     9.05324   -1.35724  -19.84643
       O     9.67843   -1.51271  -19.12753
      H1    10.30187   -2.20799  -19.36204
       H     5.08950   -5.31752  -16.56534
       O     5.73000   -5.72294  -15.87222
      H1     6.59734   -5.57111  -16.26163
       H     2.74736   -9.38766  -16.01359
       O     3.03896   -8.47051  -15.99370
      H1     3.97061   -8.47927  -15.63541
       H     1.15565   -1.09078  -14.82152
       O     1.32916   -1.04664  -15.76224
      H1     1.69352   -0.11984  -15.86984
       H     5.49122   -3.02872  -13.61170
       O     6.25635   -2.51985  -13.85993
      H1     5.83749   -1.69938  -14.21105
       H     2.71282   -1.55598  -11.95015
       O     3.22338   -2.25448  -12.36058
      H1     2.90291   -3.07355  -11.90591
       H    -2.31265   -5.56129  -15.68426
       O    -2.54540   -5.32354  -16.59465
      H1    -2.90593   -4.45409  -16.59375
       H    -0.55540   -6.26493  -12.13108
       O     0.40572   -6.14188  -12.22822
      H1     0.56650   -6.69775  -12.99214
       H     3.27676   -9.06275  -18.76756
       O     2.54914   -9.55056  -19.15776
      H1     2.41829   -9.34090  -20.09737
       H     7.19463    0.53832  -14.74579
       O     6.30279    0.52451  -15.07933
      H1     6.40073    0.93817  -15.93231
       H     5.12488   -4.33887  -19.03394
       O     5.87157   -3.98075  -19.53521
      H1     5.45182   -3.24632  -19.97297
       H     5.81699   -8.59911  -14.05636
       O     5.98427   -8.22492  -14.90084
      H1     6.06159   -7.28234  -14.84047
       H     4.01427   -7.92365  -17.42228
       O     4.51982   -7.68332  -18.18879
      H1     5.38301   -7.94070  -17.92353
       H     2.25814  -12.37100  -19.47486
       O     3.10343  -11.98901  -19.79266
      H1     3.12899  -11.07608  -19.46004
       H    -0.65323   -0.07542  -18.97729
       O     0.17628   -0.61694  -19.04971
      H1    -0.04342   -1.43107  -18.62107
       H     6.76753   -8.72973  -16.70863
       O     7.18562   -8.77917  -17.60052
      H1     8.09842   -8.62396  -17.43063
       H    -0.77229   -6.39663  -18.80498
       O    -1.09470   -5.51294  -19.07253
      H1    -1.74883   -5.24125  -18.37659
       H    -0.03431   -2.09777  -16.54621
       O    -0.53690   -2.66409  -17.20577
      H1    -1.44997   -2.59911  -16.94926
       H     0.83325   -9.15487  -18.84455
       O    -0.03719   -8.84787  -18.53539
      H1    -0.70537   -9.41347  -18.93554
       H     4.81256   -5.84316  -12.83005
       O     5.38238   -5.18718  -13.23986
      H1     5.46585   -5.26524  -14.18578
       H     1.80850   -4.59248  -19.20570
       O     1.38871   -4.20168  -18.41846
      H1     0.43567   -4.46418  -18.43889
       H    10.13883   -6.91018  -14.80625
       O     9.20608   -6.82917  -15.04566
      H1     8.77686   -6.74492  -14.15151
       H     3.24322    1.72222  -15.66332
       O     2.66580    1.23171  -16.26632
      H1     3.19256    0.69067  -16.84835
       H     1.61809   -7.67420  -15.49098
       O     0.88845   -7.25777  -15.01134
      H1     0.88340   -6.30312  -15.27565
       H     1.57151   -4.28668  -15.42491
       O     0.68898   -4.57735  -15.68679
      H1     0.20572   -3.96423  -16.24615
       H     2.81738   -1.69907  -15.28610
       O     3.45716   -2.38321  -15.02670
      H1     3.41386   -2.37448  -14.01483
       H    -1.66573   -5.93879  -13.66833
       O    -1.77462   -5.00584  -13.93110
      H1    -0.97421   -4.95387  -14.49613
       H    -1.20614   -8.91686  -16.75545
       O    -1.34688   -8.39723  -15.95460
      H1    -0.57306   -7.85901  -15.83460
       H     8.13690   -3.32386  -17.17359
       O     7.91036   -4.00835  -17.79785
      H1     7.13732   -3.67009  -18.25663
       H     4.20888   -1.45023  -16.52377
       O     4.18135   -1.01794  -17.39221
      H1     5.05382   -0.92266  -17.71638

