105
frame 4 | Written by MDAnalysis XYZWriter (release 2.4.3)
       H     1.86746   10.35686   -1.10936
       O     1.94423    9.58727   -1.69657
      H1     2.32736    8.88239   -1.11751
       H     1.74062   11.53366   -5.54095
       O     2.61896   11.26470   -5.93737
      H1     3.05583   12.01055   -6.37290
       H     7.62356   12.54149   -2.20755
       O     6.71478   12.23262   -2.22768
      H1     6.81028   11.42663   -2.73000
       H    -0.54803    7.79102   -3.79173
       O    -0.18401    7.46801   -4.61595
      H1    -0.37010    8.07722   -5.34451
       H     7.08246   12.82349   -7.41364
       O     7.60605   12.69739   -6.60061
      H1     7.70406   11.75592   -6.49811
       H     7.90231    9.35820   -5.91460
       O     7.37925   10.09021   -5.64076
      H1     6.47994   10.02860   -6.03826
       H     3.45671    4.82243   -5.71515
       O     3.65056    5.75570   -5.82333
      H1     3.22457    6.10073   -6.62647
       H     7.74876    9.90198   -2.26984
       O     7.82440    9.35677   -3.01341
      H1     7.34052    9.79803   -3.70608
       H     4.49166    3.34357   -4.32963
       O     3.61156    3.23878   -4.69063
      H1     3.05973    3.30797   -3.94753
       H     4.60334    3.70108   -8.40273
       O     3.64497    3.58666   -8.53143
      H1     3.26402    2.99955   -7.86590
       H    -0.31699    5.31287   -7.11061
       O     0.53021    5.47483   -6.64630
      H1     0.34044    5.91100   -5.81638
       H     1.80448    4.75289   -2.62288
       O     2.11440    3.87666   -2.32981
      H1     1.55282    3.41669   -1.68646
       H     2.61259    6.86186    0.05037
       O     3.16879    7.08524   -0.64800
      H1     2.71944    7.10083   -1.50346
       H     5.31159    8.04973    0.12069
       O     5.99195    8.45735    0.64745
      H1     6.06970    9.38748    0.43268
       H     8.05268    7.77883    0.23826
       O     8.91513    7.33385    0.04757
      H1     8.67412    6.40436    0.07296
       H     3.31583   10.56152   -4.30607
       O     3.69692   10.09867   -3.58731
      H1     2.99682    9.83683   -3.01489
       H     5.62180    5.20195   -6.60366
       O     6.16213    4.53841   -7.07206
      H1     6.37652    3.89277   -6.39869
       H    10.06187    8.28109   -6.28473
       O     9.52013    8.28999   -7.08432
      H1     9.05219    7.43640   -7.16366
       H     4.21859   12.69966   -3.73977
       O     5.06482   12.84511   -4.21372
      H1     5.75238   12.59780   -3.59837
       H     9.36032    5.23516   -5.04304
       O     9.16404    4.73514   -5.86486
      H1    10.04683    4.48044   -6.15833
       H     7.03594    6.23385   -7.77649
       O     7.42292    6.90244   -8.38077
      H1     6.60768    7.40044   -8.66171
       H     4.95007    9.44468   -7.94318
       O     5.11383   10.32900   -7.55613
      H1     4.45087   10.61062   -6.94662
       H     2.48208    6.05916   -3.92430
       O     1.88636    6.51007   -3.29219
      H1     1.30384    7.06282   -3.83763
       H     4.61014    8.46908   -9.89184
       O     4.68905    8.02661   -9.02145
      H1     3.91469    7.44832   -8.92366
       H     4.59845    7.32976   -5.08569
       O     5.16223    7.89211   -4.60370
      H1     4.66727    8.72438   -4.30335
       H     4.53944   13.24687   -6.16184
       O     4.23426   13.17548   -7.06029
      H1     5.01479   13.07331   -7.63628
       H     4.50343    4.47995   -1.85842
       O     5.28421    4.26168   -2.35659
      H1     5.78991    5.02720   -2.47135
       H     7.04483    7.80669   -2.38033
       O     6.48267    7.02333   -2.45409
      H1     6.09301    7.15521   -3.29162
       H     4.26690   13.41352   -0.60904
       O     3.97565   12.77277   -1.28146
      H1     4.79686   12.48366   -1.71150
       H     7.67724    2.17836   -6.20416
       O     7.28247    2.77330   -5.47516
      H1     7.92507    3.54622   -5.55173
       H     0.26580    9.70267   -6.94724
       O     1.03664    9.80944   -7.50646
      H1     1.66869   10.29435   -6.93007
       H     3.07291    5.17738   -8.45598
       O     2.62543    6.05242   -8.41947
      H1     1.80232    5.96585   -7.92548
       H     0.41450    8.70846   -1.98756
       O    -0.46271    8.33538   -2.13763
      H1    -1.20746    8.95446   -2.13307
       H    10.33144    7.60437   -3.60393
       O    10.28462    8.51581   -3.91311
      H1     9.47545    8.78721   -3.56452
       H     9.74070    5.40448   -2.69131
       O     9.29362    6.12890   -3.15780
      H1     8.55718    6.41864   -2.63432

