105
frame 9 | Written by MDAnalysis XYZWriter (release 2.4.3)
       H   -12.96924   -6.30301   18.42632
       O   -13.57467   -7.00516   18.66504
      H1   -14.03308   -6.67694   19.42467
       H   -12.43029   -9.74753   17.76786
       O   -13.29405   -9.58142   18.10138
      H1   -13.25296   -8.69364   18.46797
       H   -12.10725    1.40119   12.15945
       O   -12.39145    0.65406   12.70076
      H1   -11.95970    0.76021   13.58342
       H   -15.84466   -5.52247   13.62515
       O   -15.25713   -4.76946   13.60827
      H1   -15.07679   -4.35157   14.47546
       H   -11.21912    2.17554   17.74109
       O   -10.41189    2.24347   17.18650
      H1    -9.72355    1.87620   17.84842
       H   -13.19699   -2.09768   15.13731
       O   -12.25726   -1.79489   15.13784
      H1   -11.78499   -2.53110   14.65423
       H   -11.09595   -4.59790   17.88445
       O   -11.64959   -5.00448   18.56181
      H1   -10.99777   -5.74918   18.77710
       H   -10.29530   -8.52105   17.57964
       O   -10.49417   -9.45124   17.38402
      H1   -10.60985   -9.43271   16.45991
       H    -6.87627   -4.43574   11.41365
       O    -6.70577   -4.54803   12.40055
      H1    -6.59807   -3.72321   12.78737
       H    -7.16753   -7.64637   15.72397
       O    -7.25222   -6.67609   15.67363
      H1    -7.83776   -6.47266   14.91460
       H    -6.83521   -7.62421   18.69215
       O    -6.45650   -8.50757   18.42350
      H1    -6.87291   -8.78740   17.61873
       H   -11.10780   -7.44372   11.27288
       O   -11.39602   -7.91711   12.03028
      H1   -11.83942   -7.27578   12.63553
       H    -9.39803   -2.08072   19.55328
       O    -9.56885   -1.22705   19.15070
      H1   -10.39391   -1.27972   18.70869
       H    -8.69856   -1.20048   17.30109
       O    -8.57359   -1.67263   16.44635
      H1    -7.73407   -2.20281   16.61146
       H    -8.76569    0.51266   19.36758
       O    -8.49237    1.46618   19.26205
      H1    -8.85633    1.75826   20.11461
       H    -5.85082   -2.14883   13.33791
       O    -6.25166   -2.18894   14.18630
      H1    -6.98024   -1.57766   14.20639
       H    -8.86993   -6.25613   12.78368
       O    -9.25516   -6.39172   13.71599
      H1    -9.63989   -5.57345   13.80742
       H    -6.78731  -10.02370   15.18344
       O    -7.22246   -9.35722   15.76034
      H1    -8.04958   -9.15842   15.30712
       H   -14.07064   -7.33048   16.70379
       O   -14.26658   -7.22872   15.73012
      H1   -15.22832   -7.07483   15.65866
       H   -11.65015   -4.73871   13.57314
       O   -11.16209   -3.89654   13.74192
      H1   -10.73972   -3.58275   12.94705
       H   -12.30371   -0.40169   17.75871
       O   -11.87323   -1.31237   17.77632
      H1   -11.83705   -1.56190   16.88175
       H   -14.56915   -3.20729   16.57622
       O   -14.86670   -3.09056   15.64720
      H1   -15.43696   -2.33162   15.62461
       H    -9.60916   -3.08295   16.36177
       O   -10.08457   -3.91868   16.57517
      H1   -10.43355   -4.14787   15.66084
       H   -10.13558   -8.65120   14.00233
       O   -10.05073   -9.33037   14.70896
      H1    -9.70804  -10.10311   14.22526
       H    -8.85234   -4.78575   17.48487
       O    -8.09855   -5.32235   17.88227
      H1    -7.56323   -5.68782   17.18552
       H    -9.78391   -7.58975   19.63928
       O    -9.99324   -7.09036   18.83280
      H1    -9.16170   -6.58236   18.55984
       H    -7.12142    0.60444   12.75665
       O    -7.49775    0.21163   13.59123
      H1    -8.49817    0.39585   13.51464
       H    -6.12354   -2.95817   15.92944
       O    -5.96282   -3.35101   16.81250
      H1    -5.24537   -2.76076   17.13525
       H    -8.65690   -2.75353   11.29151
       O    -9.42714   -2.28306   11.72623
      H1    -9.69446   -1.59795   11.06958
       H    -4.73858   -6.72815   16.46913
       O    -4.39513   -7.37935   15.72882
      H1    -5.00427   -8.11249   15.79278
       H    -4.08624   -5.47145   17.78403
       O    -5.00670   -5.56668   17.46004
      H1    -5.39671   -4.68346   17.27363
       H   -13.45193   -3.99562   18.40923
       O   -14.00557   -3.17377   18.19366
      H1   -13.37299   -2.45140   18.12086
       H    -5.37535   -5.60451   13.29491
       O    -4.45953   -5.92232   13.30689
      H1    -4.39330   -6.52016   14.06397
       H   -13.20427   -6.44403   14.62111
       O   -12.79388   -6.03055   13.83697
      H1   -13.71010   -5.76469   13.48661
       H   -10.37044    1.04586   15.53286
       O   -10.78389    0.62545   14.80043
      H1   -11.00527   -0.22069   15.14334

