105
frame 1 | Written by MDAnalysis XYZWriter (release 2.4.3)
       H    -4.86148    4.71185   10.22715
       O    -4.81075    4.62749   11.22162
      H1    -5.24731    3.74243   11.36365
       H    -7.82792   -0.69817   12.78125
       O    -6.87067   -0.58371   12.44688
      H1    -6.30936   -1.24216   12.88394
       H   -10.56908    5.93250   13.73452
       O   -11.05736    6.07382   14.53677
      H1   -11.19534    7.02730   14.64132
       H   -10.94733    8.31248    9.77606
       O   -10.81608    8.68379   10.70589
      H1   -11.32910    8.10350   11.34901
       H   -13.05900    3.34436   13.15331
       O   -13.23164    2.47163   13.57922
      H1   -12.49759    2.10996   13.99620
       H   -12.32067    8.47599   13.01915
       O   -12.79697    8.02213   12.33020
      H1   -12.91819    7.08412   12.64551
       H   -13.10635    3.56947   17.22548
       O   -12.22466    3.18352   17.25448
      H1   -11.87899    3.35379   18.16457
       H   -15.72236    6.23940   10.32492
       O   -15.05380    5.62470    9.86524
      H1   -14.70038    5.09189   10.57397
       H   -14.00333    5.36199   14.00391
       O   -13.47223    5.15469   13.21927
      H1   -12.54624    5.37415   13.55785
       H   -12.07773    4.72296    7.59614
       O   -12.11588    5.44407    8.26559
      H1   -12.79025    5.16925    8.87385
       H   -15.45859    2.72492   15.68415
       O   -14.91054    3.48237   15.50130
      H1   -14.26969    3.14700   14.77429
       H   -11.86770    8.78646    8.14841
       O   -11.19099    8.12937    8.14189
      H1   -11.65820    7.28253    8.07382
       H    -7.91547    2.51941   12.99146
       O    -8.83366    2.76881   12.98184
      H1    -9.20362    2.27726   12.21747
       H    -8.04155    2.94237   15.53438
       O    -7.21697    3.49276   15.62525
      H1    -6.98809    3.93475   14.85799
       H    -9.25695    7.65261   10.53024
       O    -8.49361    7.19636   10.18661
      H1    -7.79666    7.78442   10.20491
       H    -8.71795    5.74637   12.16308
       O    -9.54658    5.31197   12.43676
      H1    -9.46266    4.36792   12.64206
       H    -8.83702    3.35764    8.59621
       O    -8.18620    2.81693    8.16534
      H1    -7.54357    2.61417    8.81179
       H    -8.70414    9.07618   15.62335
       O    -8.57649    8.18414   15.96686
      H1    -9.38502    8.07773   16.48974
       H    -7.61956    5.66094    7.12911
       O    -7.88125    6.48918    7.48526
      H1    -8.02913    6.44751    8.43615
       H    -7.22972    7.22260   15.46936
       O    -6.41816    7.03096   14.95225
      H1    -5.66715    7.01225   15.54889
       H   -12.14398    3.76224    9.94213
       O   -12.91128    3.55560   10.53634
      H1   -13.46364    2.95627    9.98796
       H    -5.81903    2.69941   16.21349
       O    -5.07539    2.06385   16.43691
      H1    -4.58926    2.40613   17.22453
       H    -6.66506    5.84827   13.62159
       O    -6.73767    5.02817   13.06456
      H1    -5.99492    5.13337   12.48100
       H    -9.72138    4.73936   10.81440
       O    -9.74960    4.64534    9.84935
      H1    -9.67652    5.58724    9.60137
       H   -12.19254    9.09164   15.09375
       O   -11.36868    8.82672   14.57482
      H1   -10.75334    9.47510   14.93048
       H    -9.87088   -1.03654   14.25074
       O    -9.39646   -0.49217   13.69777
      H1    -9.23365    0.35764   14.09022
       H    -9.92733    1.68176   16.08000
       O    -9.09041    1.77480   16.55670
      H1    -8.72727    0.86374   16.55958
       H   -10.08139   -2.23787   11.49283
       O   -10.80559   -1.71283   11.27453
      H1   -10.47278   -0.83209   11.42822
       H   -11.27232    0.65055   10.95296
       O   -10.44167    0.90936   11.41427
      H1   -10.82486    0.93957   12.30206
       H   -10.51634    5.52821   17.68691
       O   -10.21499    6.30780   17.24127
      H1   -10.37035    6.06209   16.30951
       H    -9.07762   -0.03417   10.60509
       O    -8.41634   -0.22785    9.92541
      H1    -7.59415    0.11233   10.19259
       H    -7.27290    3.39403   18.68126
       O    -6.91887    4.23718   18.28501
      H1    -6.95465    4.08334   17.32450
       H    -4.40407    2.05963   12.63867
       O    -5.13948    1.76951   12.09943
      H1    -5.50501    0.95643   12.36715
       H    -5.10291    1.96428    8.70196
       O    -5.74156    1.91885    9.41232
      H1    -5.23256    1.91580   10.26571
       H   -11.63707    2.02446   15.84361
       O   -11.38247    1.44016   15.15113
      H1   -11.94700    0.64281   15.04995

