105
frame 3 | Written by MDAnalysis XYZWriter (release 2.4.3)
       H     5.61548   -1.57472    3.64967
       O     5.24170   -1.04850    2.99288
      H1     5.82570   -0.35457    2.63345
       H     6.22668    4.03943   10.65852
       O     5.48756    3.37780   10.70989
      H1     5.80646    2.45759   10.88508
       H     0.69831    3.98704    3.43229
       O     0.85654    4.92936    3.50549
      H1     1.33302    5.29476    2.70519
       H     6.95627    3.01458    5.00542
       O     7.40480    2.19838    4.75904
      H1     7.27343    1.56148    5.45421
       H     2.60933    3.39974    9.17891
       O     3.47454    3.75128    8.98109
      H1     4.08834    3.52836    9.71094
       H    -0.29474    6.25376    5.86007
       O    -0.32342    6.12326    6.83778
      H1     0.48085    6.47551    7.17870
       H     4.62240    4.44269    2.19909
       O     4.75547    3.48372    2.32082
      H1     3.80889    3.22265    2.29156
       H     1.54810    2.31908    1.48873
       O     2.35756    2.33052    0.92406
      H1     2.28436    1.44684    0.49433
       H     3.78907    6.03818    5.81414
       O     3.37865    6.14591    4.95882
      H1     2.99828    5.32116    4.72423
       H     4.10015   -0.12950    3.82687
       O     3.61414    0.34735    4.53853
      H1     3.75374    1.27047    4.50665
       H     6.93011    4.89149    4.45396
       O     6.41349    4.60368    5.17606
      H1     6.63171    5.25512    5.89512
       H     9.42300    7.66285    4.20913
       O     9.16281    6.89186    4.72410
      H1     9.72209    6.12726    4.45016
       H     1.32083    6.99589    1.27093
       O     2.00102    6.35709    1.55734
      H1     2.63850    6.88257    2.02336
       H     5.08664    2.90461    0.57674
       O     5.53357    2.75424   -0.27365
      H1     5.23331    3.35156   -0.98775
       H     2.29610   -0.16292    9.81559
       O     2.25606    0.51006    9.08214
      H1     3.18221    0.78197    8.90881
       H     1.70315    0.21967    4.59632
       O     0.77764    0.28130    4.50876
      H1     0.36792   -0.58928    4.44575
       H     7.04267   -0.16631    6.28480
       O     6.96710    0.50724    6.97828
      H1     7.73657    0.43717    7.55736
       H     8.23925    6.08097    3.40969
       O     7.79497    5.47410    2.81426
      H1     8.40544    5.49734    2.09103
       H     8.57293    7.48413    6.60379
       O     8.68408    7.73540    7.51547
      H1     8.12371    8.51757    7.56580
       H     6.49624    1.64268    1.43893
       O     6.70325    1.11083    2.16774
      H1     6.67595    1.64040    3.00518
       H     4.35271    7.92306    2.62223
       O     3.75977    8.61485    2.97646
      H1     3.59549    9.15649    2.22095
       H     7.42637    6.52920    7.64262
       O     6.76010    5.85227    7.49519
      H1     5.91739    6.31522    7.70834
       H     5.50590    1.38451    7.65435
       O     4.58291    1.60450    7.73044
      H1     4.52431    2.43473    8.19605
       H     3.90159   -0.64504    6.28177
       O     3.46830   -1.15682    6.97748
      H1     3.41607   -0.52135    7.65834
       H     0.08826    3.20383    8.37185
       O     0.55761    2.92294    9.18005
      H1     0.85884    1.99387    9.02699
       H     2.48875    7.15074    8.05474
       O     1.63322    7.61376    8.15597
      H1     1.53282    8.17135    7.38149
       H     1.52250    8.82112    3.92038
       O     1.08508    8.37655    4.64104
      H1     1.62711    7.58697    4.82933
       H     3.86934    5.32016    8.28855
       O     3.94360    6.30842    8.12725
      H1     4.21403    6.71712    8.97069
       H    -1.08749    1.60939    7.00085
       O    -0.53803    0.83127    6.93105
      H1    -0.12714    0.92930    6.02108
       H    -0.51494    2.31972    2.32149
       O     0.23220    2.43416    2.93124
      H1     0.42207    1.70872    3.52006
       H     3.94025    2.76138    6.36535
       O     3.78081    3.32496    5.61733
      H1     4.60275    3.69996    5.34634
       H     4.36639    0.92555    0.08654
       O     3.75339    0.41511   -0.46228
      H1     3.56086   -0.41971   -0.03257
       H     4.72927    6.13216    3.54508
       O     5.09304    6.06238    2.64783
      H1     6.05091    5.98635    2.80609
       H    10.40923    2.84840    4.75762
       O    10.01560    3.69949    4.59913
      H1     9.09512    3.48227    4.61579
       H     7.28205    5.19880    9.37483
       O     7.56227    4.84879   10.24061
      H1     7.57109    5.68072   10.76232

