105
frame 10 | Written by MDAnalysis XYZWriter (release 2.4.3)
       H    -3.06655   -3.18739   11.93523
       O    -3.50828   -2.47742   12.37514
      H1    -2.84299   -1.83057   12.70601
       H    -8.45741  -10.60800   11.48365
       O    -8.02485  -10.43114   12.28694
      H1    -7.08682  -10.53794   12.06562
       H    -3.60962   -5.85564   12.20990
       O    -3.33700   -5.28283   11.45225
      H1    -4.13223   -5.08256   10.95829
       H    -7.41531   -4.56377   11.24566
       O    -7.03527   -4.85165   12.08279
      H1    -6.44615   -4.21023   12.56040
       H    -0.01282   -6.62530   13.44535
       O     0.68583   -6.00707   13.77072
      H1     0.96429   -5.63141   12.94001
       H    -7.66852   -3.16156    8.69473
       O    -7.35671   -3.49673    9.51313
      H1    -6.76242   -4.19128    9.15988
       H    -2.95866   -8.35883   10.71148
       O    -2.22780   -7.67862   10.45620
      H1    -2.49984   -6.77325   10.76959
       H    -1.33533   -8.81739   12.98919
       O    -0.91921   -7.97107   12.80310
      H1    -1.22151   -7.75382   11.92213
       H    -7.15834   -7.29124   15.06112
       O    -6.83237   -6.38203   15.05358
      H1    -7.62664   -5.90333   14.68883
       H    -1.43367  -10.85175   13.23024
       O    -1.74712  -10.20521   13.91792
      H1    -1.10567  -10.08240   14.60973
       H     0.91128   -3.20694   14.66984
       O    -0.06070   -2.97651   14.60438
      H1    -0.18191   -2.04040   14.42592
       H    -4.00740  -10.97160   15.39404
       O    -4.20785  -10.24398   14.79035
      H1    -3.35165  -10.17037   14.32521
       H    -0.66243   -6.87619   17.56661
       O    -1.19394   -7.65524   17.63071
      H1    -1.90571   -7.58124   17.01297
       H    -5.79228   -8.15707   10.29869
       O    -6.11405   -7.79863    9.46758
      H1    -5.72100   -8.46503    8.84154
       H     0.18319  -10.57800   16.19564
       O     0.14384   -9.66481   15.90819
      H1    -0.45108   -9.21639   16.51654
       H    -5.65441   -7.94955   17.80913
       O    -5.59085   -8.88426   17.97671
      H1    -5.87745   -9.33829   17.11191
       H    -0.19353   -2.61691   10.95795
       O     0.36991   -2.66136   11.75491
      H1    -0.16983   -3.04220   12.42215
       H    -1.98160   -3.37598   15.36769
       O    -2.67181   -3.88807   15.72408
      H1    -2.57495   -4.65859   15.13879
       H     0.57763   -8.80391   12.08581
       O     1.08727   -9.51591   11.75066
      H1     2.00556   -9.27164   11.76305
       H    -4.83004  -12.00229   11.46974
       O    -5.15476  -11.26731   12.04846
      H1    -4.83043  -11.58864   12.85657
       H    -2.50866   -8.66572   18.75952
       O    -3.11357   -9.40160   19.02302
      H1    -3.94403   -9.06443   18.70257
       H    -5.12564   -2.82746   13.31497
       O    -5.78862   -3.36090   13.79177
      H1    -6.48852   -2.79193   14.06261
       H    -5.14482   -3.06167    9.58545
       O    -4.45778   -2.41051    9.56619
      H1    -4.97424   -1.61699    9.89486
       H    -8.32202   -5.17552   13.12036
       O    -8.99640   -5.48889   13.65665
      H1    -9.70135   -4.81557   13.80120
       H    -6.18278   -9.41423   14.71356
       O    -6.68530   -9.00883   15.40605
      H1    -7.60614   -9.04166   15.05714
       H    -5.12667   -5.38814    8.41394
       O    -5.34917   -5.19969    9.35956
      H1    -5.71396   -6.06403    9.68420
       H    -4.80833   -9.60936   11.80363
       O    -4.54809   -8.68712   11.51168
      H1    -4.74561   -8.12616   12.31667
       H    -1.28500   -4.64423   18.83469
       O    -2.20420   -4.56857   18.56252
      H1    -2.25644   -4.17784   17.71832
       H     0.21644   -4.18386   16.21133
       O     0.11698   -5.08989   16.57957
      H1     0.34394   -5.70018   15.89127
       H    -9.20760   -7.35957   13.85685
       O    -9.16051   -8.30849   14.09757
      H1    -8.76781   -8.83901   13.36992
       H    -8.52237   -5.35596   17.26997
       O    -7.94017   -6.05949   17.54886
      H1    -7.33398   -5.96268   16.83502
       H    -5.54290   -3.18555   15.81972
       O    -5.77075   -3.16516   16.74248
      H1    -5.81524   -2.25659   17.03987
       H    -3.91094   -7.07877   16.56548
       O    -3.43162   -7.65580   15.89995
      H1    -3.90896   -8.51630   15.72014
       H    -3.84211   -5.82324   18.20820
       O    -4.65217   -6.16014   17.80191
      H1    -5.14488   -5.39582   17.46399
       H    -5.28512   -6.54609   13.75416
       O    -4.35212   -6.76943   13.64889
      H1    -3.97823   -7.12629   14.53650

