105
frame 0 | Written by MDAnalysis XYZWriter (release 2.4.3)
       H    -6.89018  -16.80739   11.44504
       O    -5.94213  -16.73653   11.39164
      H1    -5.61387  -17.34342   10.75272
       H    -5.35529  -18.79329   14.20414
       O    -5.13588  -19.65558   13.86180
      H1    -4.14643  -19.61594   13.92968
       H    -5.18912  -16.17514   14.63621
       O    -4.99292  -16.97221   14.20931
      H1    -5.03765  -16.62927   13.32666
       H    -0.31867  -12.12682   12.62242
       O    -0.15941  -12.40563   11.74005
      H1    -0.92630  -12.08253   11.13849
       H    -7.76875  -14.25564   15.99183
       O    -7.30436  -14.91811   15.44732
      H1    -7.30216  -14.68043   14.52384
       H    -8.16917  -11.80755   10.59523
       O    -7.46616  -11.95151   11.27793
      H1    -7.59440  -11.41892   12.10428
       H    -7.57701  -13.40168   12.33256
       O    -7.80627  -14.27145   12.83776
      H1    -8.28282  -14.84750   12.20771
       H    -2.28421  -16.03266   15.05410
       O    -2.54440  -16.89509   15.39640
      H1    -3.39573  -16.97579   14.89356
       H    -2.91489  -12.05982   18.52964
       O    -3.66344  -11.57345   18.89809
      H1    -3.90347  -11.07892   18.09181
       H    -1.74497   -9.77862   10.15797
       O    -1.23008   -8.94157   10.37032
      H1    -0.33136   -9.24838   10.16116
       H    -1.89937  -15.49427   18.09965
       O    -2.84656  -15.79195   18.00452
      H1    -2.76859  -16.32803   17.11036
       H    -3.65307   -9.91368   11.31394
       O    -3.31295  -10.80030   11.08978
      H1    -4.00377  -11.36773   10.65798
       H    -3.09450  -11.79048   12.31479
       O    -3.03539  -12.44174   13.09407
      H1    -3.57157  -13.22682   12.87570
       H    -3.76615  -13.19975   15.81342
       O    -3.62166  -12.21804   15.77834
      H1    -3.50320  -11.97543   14.84194
       H    -2.67686  -16.41042    9.07166
       O    -2.64021  -15.46839    9.50062
      H1    -1.85446  -15.46254   10.07363
       H    -4.12282   -9.00895   16.22878
       O    -3.86839   -9.17169   17.14931
      H1    -3.13397   -8.57193   17.24306
       H    -3.79828   -8.31339   12.43515
       O    -3.89011   -8.06078   11.49692
      H1    -3.08596   -7.76174   11.21724
       H    -0.93804  -10.72617   17.11617
       O    -1.05939  -11.65364   16.84890
      H1    -1.95255  -11.80792   16.44831
       H    -4.37453  -14.98520   11.49551
       O    -4.66976  -14.38141   12.19517
      H1    -5.53636  -14.61437   12.42331
       H    -1.03040   -8.85662   13.00204
       O    -1.06520   -9.01416   13.94470
      H1    -0.47137   -9.78754   14.04487
       H    -0.59478  -11.85915    8.03858
       O    -1.40281  -12.00882    8.59362
      H1    -1.95200  -12.63822    8.14829
       H    -0.28824  -11.66620   15.28001
       O     0.39119  -11.45512   14.57874
      H1     0.92586  -12.21425   14.37971
       H    -7.67722  -10.14324   14.00589
       O    -8.14595  -10.28576   13.18738
      H1    -8.10377   -9.36988   12.82260
       H    -3.29071  -10.23072    6.66393
       O    -2.39556   -9.97522    6.94915
      H1    -2.25943  -10.55905    7.71132
       H    -8.85981  -12.65302   15.37770
       O    -8.66829  -12.79082   16.28178
      H1    -9.43298  -13.31194   16.59917
       H    -1.80588  -13.73616   14.23636
       O    -1.56427  -14.65970   14.07684
      H1    -1.61161  -14.71341   13.15481
       H    -5.36575  -10.48835   15.03925
       O    -6.26332  -10.59916   15.33638
      H1    -6.20663  -10.86674   16.25731
       H    -4.86558   -8.63499    8.73018
       O    -5.62724   -9.23744    8.71257
      H1    -5.29484  -10.09190    9.05681
       H     1.33501  -15.16194   13.75339
       O     1.47126  -14.23391   13.49456
      H1     0.54459  -14.00822   13.19000
       H    -4.42647   -7.95744   13.87378
       O    -4.11864   -8.83820   14.04526
      H1    -3.15648   -8.82503   14.29516
       H    -4.43355  -14.85800   16.91039
       O    -4.64578  -14.82948   15.95830
      H1    -5.61383  -14.61761   15.90097
       H    -3.69686  -14.54815    8.39244
       O    -4.33504  -14.24717    7.73614
      H1    -4.02419  -14.60944    6.88608
       H    -5.94672  -11.93084   10.31706
       O    -5.31706  -11.96902    9.49145
      H1    -5.36520  -12.80473    9.02628
       H     1.49379  -13.24071    9.92951
       O     2.38592  -13.52154   10.23204
      H1     2.86555  -13.45097    9.40352
       H     0.23677  -15.45398   10.88048
       O    -0.54047  -15.01612   11.25474
      H1    -0.14355  -14.14244   11.40614

