105
frame 6 | Written by MDAnalysis XYZWriter (release 2.4.3)
       H    18.61384    4.25291   -5.69420
       O    19.08574    4.35949   -4.84574
      H1    19.67763    3.58327   -4.75089
       H    15.76695    9.02384   -6.70408
       O    14.99072    9.53309   -6.35152
      H1    14.68171    9.06277   -5.52970
       H    19.00335    4.65016  -10.11361
       O    18.78755    5.57157  -10.53843
      H1    19.17475    5.51115  -11.44709
       H    12.68297    5.88243   -7.83283
       O    12.02622    5.40954   -7.20623
      H1    12.50077    5.54629   -6.35088
       H    14.46838    9.63796   -8.22621
       O    14.88927    9.25609   -9.03002
      H1    14.28127    9.58204   -9.67798
       H    17.46961   11.22975   -2.69401
       O    16.92189   10.67181   -3.33362
      H1    15.97141   10.71700   -3.12368
       H    14.46958    3.03447   -6.12564
       O    14.59241    3.12532   -5.14385
      H1    14.05222    3.92620   -4.98439
       H    11.18030    7.99754   -3.19323
       O    11.49039    8.31675   -2.35615
      H1    10.82820    8.01368   -1.71340
       H    10.97225    3.93499   -1.94668
       O    11.47976    4.73662   -2.05610
      H1    12.41298    4.62082   -1.82405
       H    18.88929   10.57164   -7.55637
       O    19.27450   10.29131   -8.42713
      H1    18.44827   10.17708   -8.96214
       H    16.65028    7.01983   -5.49399
       O    16.81152    6.77169   -4.56553
      H1    16.67998    5.80035   -4.51360
       H    17.75405   11.59771   -5.69986
       O    17.54592   10.90348   -6.30847
      H1    16.59727   10.76004   -6.16727
       H    19.00577   10.87967   -0.49742
       O    19.02045    9.94678   -0.31979
      H1    18.35811    9.55143   -1.01335
       H    19.51409    2.96734   -8.23073
       O    18.69334    3.29313   -8.66016
      H1    18.38693    2.54202   -9.14619
       H    16.72446    3.28810   -0.57999
       O    15.94558    2.99427   -1.09341
      H1    16.11440    3.25995   -2.00507
       H    17.03563    5.31656   -2.34166
       O    17.52913    5.96752   -1.85167
      H1    17.55389    6.80018   -2.39766
       H    12.47288    5.34118   -3.68487
       O    13.17130    5.41756   -4.36417
      H1    13.68052    6.25421   -4.28430
       H    15.98761    3.80930   -4.29642
       O    16.58936    4.07160   -3.59370
      H1    17.39754    3.99045   -4.04970
       H    11.61524    6.79086  -10.43229
       O    12.01689    7.65854  -10.56471
      H1    12.75032    7.63206   -9.96789
       H    16.58354    2.43305  -11.81095
       O    16.58744    2.37605  -10.86684
      H1    16.10007    3.10567  -10.48678
       H    16.31358    9.99888   -9.81697
       O    17.11386   10.12460  -10.33486
      H1    16.90931   10.72061  -11.01839
       H    16.94130    6.65007   -7.35000
       O    16.77544    7.60162   -7.29435
      H1    17.39333    7.98458   -7.93913
       H    12.62199   10.92366   -5.83878
       O    12.72242   11.08370   -4.92738
      H1    11.98016   10.78898   -4.43797
       H    11.75712    1.90168   -5.79980
       O    11.37010    2.37188   -6.58301
      H1    11.81649    3.22739   -6.75200
       H    16.51533    0.61712   -5.44283
       O    16.86288    0.92129   -4.62459
      H1    16.23161    0.69407   -3.93699
       H    17.82328    9.24882   -3.14141
       O    18.28624    8.37392   -2.98737
      H1    18.08902    7.83201   -3.71780
       H    14.26149    2.11664   -8.41226
       O    14.93874    2.35350   -7.81931
      H1    15.18834    1.43271   -7.50569
       H    15.99108    4.14276   -6.84158
       O    16.81914    4.64810   -7.04760
      H1    17.29687    4.24556   -7.77036
       H    15.29333    8.10071   -0.36272
       O    14.36037    8.13146   -0.51322
      H1    14.05309    7.38407   -1.01134
       H    13.32804   10.49511   -2.62956
       O    14.26706   10.24031   -2.50523
      H1    14.14938    9.52202   -1.81758
       H    15.32961    7.56930   -4.22027
       O    14.41618    7.99320   -4.31609
      H1    14.30323    8.70384   -3.70870
       H    14.51307    7.36636   -8.57487
       O    13.96373    6.55410   -8.77354
      H1    14.51140    5.95131   -9.26025
       H    17.00774    5.37533  -10.37840
       O    16.03962    5.19916  -10.34769
      H1    15.65549    5.37516  -11.25122
       H    14.83695    4.49396   -1.12386
       O    14.12487    5.15111   -1.21920
      H1    13.87836    5.13694   -0.27220
       H    17.30843    6.82676    1.10407
       O    17.28746    7.48847    0.45392
      H1    17.26981    6.85824   -0.34977

