105
frame 9 | Written by MDAnalysis XYZWriter (release 2.4.3)
       H    -5.95182    9.83014  -17.89235
       O    -6.86186    9.98222  -18.23070
      H1    -7.00657   10.93383  -18.37710
       H    -4.43211    5.37126  -17.29652
       O    -4.86315    5.70191  -16.49813
      H1    -4.30849    5.53340  -15.69832
       H   -10.69922    8.32122  -11.85812
       O   -10.30818    8.31259  -12.77795
      H1    -9.91365    7.44767  -12.99166
       H    -8.70842   11.37554  -12.46960
       O    -8.87100   12.32117  -12.77498
      H1    -9.28328   12.76465  -11.99319
       H    -8.82204    7.91122  -16.46195
       O    -8.15565    8.53574  -16.13123
      H1    -7.88923    9.06810  -16.90485
       H   -16.24420    5.22596  -16.37228
       O   -15.71567    4.52370  -15.91841
      H1   -14.91542    4.53336  -16.51008
       H    -9.38414    6.04210  -19.40887
       O   -10.10232    5.53914  -19.00790
      H1   -10.54237    6.14839  -18.38568
       H   -11.03964    6.99695  -16.21926
       O   -10.71144    7.47251  -16.98689
      H1   -11.33445    8.21492  -17.00927
       H    -4.65852    7.67499  -17.32425
       O    -4.65401    8.51812  -17.81103
      H1    -4.15316    9.28470  -17.38712
       H   -14.34803    8.96539  -11.24412
       O   -13.62790    9.42644  -11.71200
      H1   -13.85520   10.33342  -11.96618
       H    -5.81795    6.29354  -13.27896
       O    -5.24526    5.63537  -12.84122
      H1    -4.60891    5.31904  -13.52022
       H   -11.91844    8.63961   -9.39169
       O   -11.68158    8.27613  -10.24462
      H1   -12.37487    8.74775  -10.73368
       H    -9.05976    5.15636  -13.22636
       O    -9.17012    5.93934  -13.80053
      H1    -8.86246    5.71047  -14.67124
       H   -14.94515   10.44382  -19.53171
       O   -15.21601    9.96407  -18.73856
      H1   -14.80636    9.09567  -18.88312
       H   -11.16062    5.09519  -10.72318
       O   -10.64985    4.78771  -11.50802
      H1   -11.36136    4.60885  -12.12833
       H   -15.64712    5.53919  -13.99810
       O   -15.13969    5.49281  -13.17813
      H1   -14.66762    6.33320  -13.08856
       H    -8.04098    9.56706  -11.07954
       O    -7.88476    9.67744  -12.08438
      H1    -8.58121    9.14911  -12.44761
       H    -9.80845    3.38294  -11.47192
       O    -9.19569    2.61098  -11.44372
      H1    -8.52471    2.74363  -12.11219
       H   -10.59704    9.20376  -14.50104
       O   -10.26030    9.87861  -15.14024
      H1    -9.38059    9.59785  -15.48592
       H    -9.19932    0.73234  -15.28404
       O    -8.69590    0.02155  -14.86380
      H1    -9.14691   -0.72017  -15.20548
       H    -9.58639    3.69578  -18.11703
       O    -9.02553    2.95616  -17.80892
      H1    -9.58739    2.34289  -17.25644
       H   -10.24775   12.31035  -16.89633
       O   -10.88241   12.27195  -17.62967
      H1   -11.22653   11.31494  -17.71419
       H   -15.10798   11.25050  -15.00839
       O   -15.16031   10.49226  -14.46375
      H1   -15.39218   10.94339  -13.65462
       H   -13.44431    4.45204  -13.28126
       O   -12.78536    3.79313  -13.10967
      H1   -13.12353    3.36061  -12.31978
       H    -6.62289    5.06429  -16.23245
       O    -7.48182    4.68015  -16.09544
      H1    -7.81412    4.08884  -16.70994
       H    -6.61358    8.37744  -12.98133
       O    -6.16827    7.98756  -13.78793
      H1    -6.93291    8.01953  -14.41915
       H   -13.14280    4.31153  -18.04368
       O   -13.09127    4.30952  -17.06260
      H1   -12.48064    4.99293  -16.89890
       H   -11.63747    2.23765  -16.21681
       O   -10.87897    1.67113  -16.33644
      H1   -11.16727    0.82285  -16.59805
       H   -13.20866   10.16903  -17.05976
       O   -12.25559    9.91644  -17.19855
      H1   -11.84762    9.93947  -16.30470
       H   -13.31319    7.89678  -18.51068
       O   -14.12711    7.38011  -18.63160
      H1   -14.27627    6.90712  -17.83186
       H   -12.34658    6.81940  -14.57760
       O   -11.71985    6.11544  -14.79443
      H1   -10.92879    6.13917  -14.19608
       H   -14.74700    1.51540  -14.21352
       O   -13.88098    1.30627  -13.76434
      H1   -13.42503    2.18225  -13.85603
       H   -13.66606    8.39220  -13.23207
       O   -13.83724    7.91910  -14.08367
      H1   -14.29646    8.64877  -14.54855
       H    -9.89416   13.68539  -15.04901
       O   -10.74931   13.15145  -14.84974
      H1   -10.37054   12.37023  -14.41015
       H    -7.36239    3.81854  -14.14132
       O    -7.14424    3.77972  -13.22096
      H1    -6.54751    4.58557  -13.08644

