105
frame 5 | Written by MDAnalysis XYZWriter (release 2.4.3)
       H    -3.62217    2.82625   -2.27314
       O    -3.74615    2.19053   -3.01351
      H1    -4.68560    2.02280   -3.03168
       H    -7.92714    5.09828   -6.33142
       O    -7.43200    4.28013   -6.10934
      H1    -8.01078    3.68879   -5.51841
       H   -11.40687    7.04751   -5.20397
       O   -10.38917    6.88595   -5.33872
      H1    -9.83587    6.91913   -4.50896
       H    -7.10996    6.36043   -8.22348
       O    -7.90278    6.45782   -7.62976
      H1    -8.58875    6.00232   -8.13767
       H   -10.48487    4.66735   -7.87767
       O   -10.15196    5.18329   -8.63005
      H1    -9.83009    4.50133   -9.21518
       H    -7.41444    2.04427   -3.64685
       O    -6.63643    2.20188   -3.08175
      H1    -6.74984    1.49156   -2.38591
       H   -11.73925    3.85116   -5.69181
       O   -11.01330    4.29629   -6.13189
      H1   -10.91789    5.17263   -5.72200
       H    -6.83736    9.33172   -7.54208
       O    -7.06910    8.83977   -6.74052
      H1    -7.44934    8.02686   -7.12514
       H    -4.24312   -0.51539   -6.35484
       O    -4.41495    0.15820   -5.68349
      H1    -3.48663    0.48573   -5.48846
       H    -0.07275    8.46065   -5.00028
       O    -0.26829    8.38704   -5.96287
      H1    -1.18629    8.69697   -6.09451
       H    -1.62247    3.99215   -8.25431
       O    -2.09710    4.68310   -8.74684
      H1    -1.79345    4.38176   -9.58801
       H    -0.33439    2.80872   -6.23732
       O     0.27631    2.98384   -6.95742
      H1    -0.07970    2.47922   -7.73153
       H    -8.17403    1.32722   -5.75319
       O    -8.56227    1.71497   -4.92917
      H1    -9.51439    1.82102   -5.05712
       H    -4.73673    7.47416   -5.23309
       O    -4.95327    8.39590   -5.11048
      H1    -5.66096    8.59075   -5.76348
       H    -4.16172    9.57017   -3.57811
       O    -4.10368   10.31268   -3.01440
      H1    -4.88841   10.20740   -2.46700
       H    -3.06253    7.73772   -9.98261
       O    -3.86226    7.29940  -10.37621
      H1    -4.12284    7.73242  -11.14502
       H    -4.43871    5.90380   -3.40418
       O    -4.28630    6.07730   -2.47204
      H1    -4.45734    5.24400   -2.01672
       H    -6.97762    1.44838   -7.20575
       O    -6.96254    0.50950   -6.87131
      H1    -6.17224    0.45375   -6.32906
       H    -2.64440    5.50171   -2.04458
       O    -1.85483    4.98367   -2.30309
      H1    -1.60999    4.43983   -1.51944
       H    -7.10347    3.29055   -9.06341
       O    -6.92353    2.84618   -8.21208
      H1    -7.19109    3.39149   -7.49518
       H    -0.68202    5.93695   -8.15777
       O     0.20569    6.19601   -7.94463
      H1     0.01288    6.84038   -7.25702
       H    -5.32276    5.29736   -5.50867
       O    -4.45452    5.66453   -5.21291
      H1    -3.94212    4.89221   -5.31757
       H    -0.78164    8.12588   -8.98237
       O    -1.67721    8.30780   -9.24155
      H1    -2.10573    8.81021   -8.47654
       H    -3.76226    3.80762  -11.22212
       O    -3.36450    4.69813  -11.49725
      H1    -3.83614    5.38926  -10.95473
       H    -2.57276   10.34341   -6.99391
       O    -2.63189    9.40576   -6.82882
      H1    -3.46408    9.20779   -6.48624
       H    -7.62697    4.58884   -1.26321
       O    -8.09439    4.27876   -2.04153
      H1    -7.50989    3.65370   -2.47375
       H    -4.69571    6.39595   -9.11828
       O    -5.50636    5.87078   -8.84342
      H1    -5.30755    5.02981   -8.40301
       H    -6.73669    7.10911  -10.07227
       O    -6.85869    8.02756  -10.25286
      H1    -7.74411    8.37560   -9.99158
       H    -5.42326    4.03065   -0.52166
       O    -4.46469    3.90421   -0.71190
      H1    -4.05408    4.54466   -0.10890
       H    -3.61542    3.92334   -8.28626
       O    -4.27964    3.52606   -7.73436
      H1    -5.03447    3.41287   -8.33186
       H    -6.96735    7.69016   -2.29812
       O    -6.29957    8.08281   -1.71977
      H1    -5.52958    7.51061   -1.77289
       H    -8.39467    6.03879   -3.03286
       O    -8.52648    7.05619   -3.14969
      H1    -8.94601    7.21734   -2.28351
       H    -2.66352    2.95955   -4.22656
       O    -2.24232    3.67280   -4.74370
      H1    -1.76185    4.23732   -4.14157
       H    -7.37417    9.39851   -3.81717
       O    -8.08398    9.73437   -4.43021
      H1    -7.77588    9.37847   -5.24701
       H    -1.85000    0.93257   -7.44700
       O    -1.94139    1.19414   -8.39076
      H1    -2.84745    1.53781   -8.43364

