105
frame 4 | Written by MDAnalysis XYZWriter (release 2.4.3)
       H    -6.62726    5.15250   -7.16687
       O    -6.52208    4.27351   -6.74572
      H1    -7.08877    4.25891   -6.01578
       H    -6.70195    6.58784   -8.41444
       O    -7.03016    6.88203   -7.55761
      H1    -8.00519    6.93778   -7.66550
       H     1.75088    3.50232  -11.11627
       O     2.44403    2.91278  -10.71944
      H1     2.63117    3.28898   -9.82573
       H    -1.31186    3.76617   -7.72039
       O    -1.52830    4.52801   -8.25201
      H1    -1.09036    4.55750   -9.14450
       H    -1.15317    1.51126   -7.92510
       O    -0.35255    1.93859   -8.26433
      H1    -0.45710    1.96017   -9.22230
       H    -1.34879    6.25141  -13.27907
       O    -1.20826    5.24364  -13.30457
      H1    -1.46972    4.96406  -12.41595
       H    -3.40871    7.90627  -10.73992
       O    -3.96813    7.12030  -10.81681
      H1    -4.30224    7.18701  -11.73718
       H    -6.21417    6.03578  -15.50967
       O    -5.90813    5.71895  -14.63583
      H1    -5.08752    5.24464  -14.72395
       H     0.90830    8.88881   -9.04418
       O     0.21892    8.37951   -9.57921
      H1     0.56180    7.46568   -9.62871
       H     2.25469    2.72604  -14.34204
       O     1.44957    3.17558  -14.04412
      H1     0.85183    2.42569  -13.85772
       H    -7.22129    0.80508  -12.84439
       O    -7.62642   -0.05554  -12.96554
      H1    -8.56968    0.03849  -12.81747
       H    -1.50849    1.15766  -10.58331
       O    -1.13765    1.97970  -10.98708
      H1    -1.94096    2.48343  -10.94727
       H    -7.72510    2.61215   -9.15657
       O    -6.94125    2.36059   -8.63851
      H1    -6.92484    3.06637   -8.00928
       H    -0.31699    5.31287   -7.11061
       O     0.53021    5.47483   -6.64630
      H1     0.34044    5.91100   -5.81638
       H     1.67646    5.70468   -9.98307
       O     1.00869    5.39803  -10.60421
      H1     1.43797    5.51519  -11.49343
       H     2.66378    5.64394  -13.44428
       O     1.77192    5.76879  -13.10268
      H1     1.18504    5.12295  -13.55064
       H    -0.12486    0.36711  -14.27291
       O    -0.57919    1.15840  -14.02287
      H1    -1.08373    1.00711  -13.19589
       H    -1.72601    8.94623   -9.55482
       O    -2.53367    9.20956   -9.98447
      H1    -2.25115    9.87858  -10.64082
       H    -3.66557    3.69940  -11.66748
       O    -3.14097    4.42122  -11.45530
      H1    -3.64717    5.14728  -11.04991
       H    -3.38129    0.43666  -12.30181
       O    -2.54500    0.00830  -12.46210
      H1    -2.19550   -0.20534  -11.55779
       H    -1.33977    3.23719  -16.36284
       O    -0.46618    3.64637  -16.45342
      H1    -0.03099    3.47932  -15.60474
       H    -2.95621    5.37123  -15.49107
       O    -3.26630    4.61448  -14.98506
      H1    -2.80885    4.65746  -14.11752
       H    -4.52134    0.91364  -10.47066
       O    -4.40711    1.73813  -11.07593
      H1    -5.24749    1.95620  -11.44576
       H    -2.25370   -0.45257   -9.09907
       O    -1.74444   -0.57757   -9.87902
      H1    -1.35779   -1.44952   -9.81949
       H    -1.49459   -0.01557  -16.74579
       O    -2.08294    0.50359  -16.16096
      H1    -1.58712    0.81323  -15.39747
       H    -2.81499    2.25399  -16.88636
       O    -3.11256    3.12666  -17.10044
      H1    -3.20031    3.60021  -16.28634
       H    -5.88942    5.73070  -10.85117
       O    -6.24991    5.43714  -10.00059
      H1    -5.88563    4.62641   -9.68722
       H    -7.34577    6.73435  -10.79580
       O    -7.76866    7.51600  -11.07565
      H1    -8.05107    7.89560  -10.16547
       H    -3.41881    7.34612  -13.46464
       O    -4.35665    7.48926  -13.42391
      H1    -4.99483    6.89232  -13.86604
       H    -5.77160   -0.18920   -8.95595
       O    -5.13265   -0.40173   -9.62239
      H1    -5.66151   -0.90660  -10.34039
       H    -1.06417    8.70812  -12.61960
       O    -1.11952    7.77818  -12.90320
      H1    -0.23505    7.52502  -12.80178
       H    -3.37883    3.88204   -8.53043
       O    -4.11700    3.25146   -8.62333
      H1    -4.23717    3.03491   -9.54481
       H    -7.73085    2.69879  -11.14284
       O    -7.02098    2.58557  -11.76721
      H1    -7.24081    3.09898  -12.57318
       H    -7.40326    3.65214  -14.78469
       O    -7.93213    3.84681  -13.99340
      H1    -7.80055    4.79134  -13.91771
       H    -2.55786    0.48975   -6.92540
       O    -2.94642    0.67741   -7.75829
      H1    -3.55878    1.35626   -7.55097

