105
frame 0 | Written by MDAnalysis XYZWriter (release 2.4.3)
       H     8.64190   18.13880   12.99511
       O     7.91282   18.38596   12.46666
      H1     7.40960   17.57219   12.46353
       H    13.26905   17.00140   13.67948
       O    13.15474   16.63694   12.79705
      H1    12.19657   16.65355   12.76524
       H    13.36618   19.75498   14.91940
       O    13.18791   18.78884   14.92688
      H1    14.06251   18.36196   15.03841
       H     9.30681   12.32942    8.13736
       O     9.89117   13.01825    7.80515
      H1     9.95867   13.03024    6.81543
       H    12.90398   15.63123    7.15531
       O    12.93807   14.73045    7.54261
      H1    13.71150   14.76483    8.18959
       H     6.31509   15.45680   12.83970
       O     7.20018   15.78975   13.05679
      H1     7.89457   15.14800   12.83282
       H     7.37115   18.96900    8.26867
       O     6.50965   19.18830    7.88417
      H1     5.95197   19.46686    8.58715
       H    14.24922   16.61485    3.65562
       O    14.26472   15.71502    3.35116
      H1    13.88369   15.28501    4.07388
       H     8.56749   17.08693   11.34767
       O     8.75400   16.59750   10.46352
      H1     9.64419   16.27344   10.57528
       H     9.45622   18.15354    9.11063
       O     9.41602   18.50412    8.17808
      H1     9.64828   19.47238    8.34042
       H    15.04818   13.85690    9.60159
       O    15.01920   14.78313    9.31847
      H1    15.65799   15.34594    9.84779
       H    11.27050   15.24996   15.56322
       O    11.31705   14.50934   14.98938
      H1    11.79321   14.68534   14.15134
       H     9.98163   13.86970   14.28244
       O     9.22941   13.56408   13.70479
      H1     8.42740   13.60029   14.22460
       H    12.04278   17.14270    6.34735
       O    12.98964   17.20164    6.18142
      H1    13.12961   18.00655    5.66457
       H     9.70610   14.44827    5.07406
       O    10.25064   13.67458    4.93420
      H1    11.13897   13.84192    4.56813
       H    16.17369   19.36894   11.99298
       O    17.03454   19.00937   11.75241
      H1    16.89328   18.04108   11.52716
       H     8.38108   15.25900    9.19036
       O     7.95570   14.68988    8.52963
      H1     8.64126   14.03091    8.26600
       H    13.90467   12.97137    5.02602
       O    13.18211   13.62058    5.14572
      H1    13.19594   13.96020    6.10305
       H    18.02046   14.46184   12.88124
       O    17.44813   14.03802   12.19299
      H1    17.17180   13.20683   12.61830
       H     8.30979   15.24055    6.61357
       O     8.58656   15.62851    5.78694
      H1     7.91177   16.29570    5.59189
       H    13.96599   17.76444   11.25527
       O    14.06754   17.93383   10.31674
      H1    14.64242   17.23704   10.02306
       H    15.15690   11.46833    7.19057
       O    14.23531   11.12119    7.33114
      H1    13.90719   10.99867    6.43652
       H     9.85095   12.11575   12.30956
       O    10.25722   11.51788   11.70490
      H1    10.50385   10.69438   12.27583
       H    11.80746   10.44499    6.38899
       O    11.80787   10.79899    5.49501
      H1    12.02334   11.73110    5.61245
       H    13.21248   14.88758   12.72622
       O    13.11836   13.93267   12.87918
      H1    13.30525   13.54482   11.99940
       H    10.16760   17.91697    6.66681
       O    10.42455   17.64946    5.79798
      H1     9.79898   16.89388    5.62514
       H    11.05157   12.64985    8.88875
       O    11.71565   12.29527    9.53714
      H1    11.32696   12.27662   10.42265
       H    16.13661   15.56027    7.77449
       O    16.63265   15.90687    7.08359
      H1    16.68101   16.87363    7.15674
       H    11.61574   15.10506    9.26049
       O    11.50032   15.75235   10.00868
      H1    12.32493   16.25855    9.84400
       H    15.81515   13.90600   15.05993
       O    14.98191   14.32266   15.27910
      H1    14.36483   13.96253   14.68569
       H    16.64149   15.46480    4.17415
       O    16.94888   14.70955    4.61547
      H1    16.70901   14.83897    5.55583
       H    13.53083   12.25110    9.92698
       O    14.38048   12.27768   10.45126
      H1    14.42765   11.51824   11.05374
       H    17.56436   16.54008   10.33401
       O    16.80733   16.44262   10.86196
      H1    16.99349   15.69752   11.47690
       H    17.40322   13.98778    8.70739
       O    18.06333   14.04548    9.40664
      H1    17.55022   13.95583   10.24265
       H    10.74006   18.10192   12.36414
       O    10.61487   17.74555   13.26394
      H1    10.59635   18.53456   13.85469

