105
frame 11 | Written by MDAnalysis XYZWriter (release 2.4.3)
       H    -1.25267   -8.44079    0.49278
       O    -2.10962   -8.76844    0.81848
      H1    -2.12087   -8.53830    1.78923
       H     6.08620   -8.63785    1.70271
       O     5.87189   -7.92839    1.06144
      H1     5.23755   -8.41363    0.43790
       H     2.58271  -10.82343    0.64864
       O     2.14398  -10.96279   -0.21146
      H1     2.77797  -10.54468   -0.79977
       H    -3.83259   -6.22426    0.04782
       O    -4.13010   -7.13548    0.09761
      H1    -3.31176   -7.74616    0.23621
       H    -0.04389  -12.34675   -5.84434
       O    -0.34264  -13.18833   -6.24564
      H1    -1.18608  -13.49919   -5.88278
       H     0.13844   -8.47337   -2.02650
       O    -0.02824   -8.51764   -2.96075
      H1    -0.41000   -7.66876   -3.13845
       H     1.32424   -8.39138   -3.84744
       O     2.29748   -8.37232   -4.07107
      H1     2.38972   -8.09746   -5.03834
       H    -0.62910   -4.88176   -3.03191
       O    -0.23001   -4.87883   -3.95231
      H1    -0.87773   -4.38166   -4.46780
       H     1.15573  -10.98452   -4.56073
       O     0.97803  -10.95533   -5.49771
      H1     1.78431  -11.34217   -5.82086
       H     1.68516   -4.09227   -5.46894
       O     2.08298   -3.42157   -4.84799
      H1     1.85812   -3.83530   -3.97049
       H     2.90847   -5.62034    1.92117
       O     2.69533   -6.57264    1.74417
      H1     3.40158   -7.10650    2.12341
       H    -0.24273   -4.92142    1.49387
       O     0.08655   -4.15766    0.96772
      H1     1.02766   -4.02828    1.14021
       H     3.12403  -11.60632    3.24466
       O     3.23517  -10.76517    2.79751
      H1     2.36953  -10.31266    3.02269
       H     3.04112   -3.98769   -1.92457
       O     2.39438   -4.64837   -2.21763
      H1     2.93730   -5.45803   -2.23558
       H    -0.57728  -13.01823   -3.66162
       O     0.02096  -12.55487   -3.07168
      H1    -0.52259  -11.79346   -2.82210
       H     4.27263   -6.19855   -3.24795
       O     3.92703   -6.80310   -2.58789
      H1     3.33200   -7.37666   -3.14848
       H     0.90604  -15.20303   -3.20539
       O     1.21091  -14.74510   -2.38391
      H1     0.89991  -13.83962   -2.51938
       H     4.29965   -8.19734   -6.71152
       O     3.54734   -7.70831   -6.50394
      H1     2.79773   -8.06897   -7.04737
       H     1.16252   -7.89605    0.12228
       O     0.48118   -8.52066   -0.04901
      H1     0.99583   -9.36910   -0.12491
       H    -1.44625  -14.52578   -0.65736
       O    -2.28372  -14.13330   -0.86600
      H1    -2.24819  -13.59744   -1.67586
       H    -5.69831   -7.28441   -2.30825
       O    -5.66318   -8.06475   -1.71129
      H1    -5.00745   -7.76765   -1.02484
       H    -2.45123   -4.52721    0.02656
       O    -3.06264   -4.27635    0.70611
      H1    -3.23282   -3.32174    0.59004
       H    -1.33153  -10.49523    1.12367
       O    -0.79124  -11.25324    1.29624
      H1    -1.35093  -11.99684    0.88983
       H    -4.35039  -11.43430    0.01423
       O    -3.44878  -11.59438   -0.22120
      H1    -3.41241  -12.56199   -0.32075
       H     0.87352  -12.35308    1.57477
       O     1.43750  -13.20040    1.70543
      H1     2.06510  -13.15322    0.96150
       H    -1.48807   -7.70333    3.29681
       O    -2.15517   -8.39460    3.44496
      H1    -2.94213   -7.84027    3.52926
       H    -0.38479   -4.35003   -0.65636
       O    -0.98592   -4.60664   -1.38829
      H1    -1.22656   -3.77843   -1.73918
       H     5.23887   -9.43990   -1.46253
       O     4.45445   -9.06177   -1.04555
      H1     4.43520   -8.13407   -1.22549
       H     0.84651   -9.81483    4.30965
       O     0.79636   -9.76948    3.30304
      H1     0.14248  -10.42329    3.04994
       H     1.47336   -6.12776   -6.73907
       O     0.99344   -5.31558   -6.62657
      H1     0.44835   -5.44656   -5.86358
       H     4.87743   -9.90788   -5.31443
       O     4.14191  -10.29294   -4.81929
      H1     3.63000   -9.52829   -4.53687
       H    -0.38292   -5.96670    3.50627
       O    -0.32118   -6.47871    2.68541
      H1     0.52683   -6.95114    2.66520
       H    -3.69929   -9.12585   -5.29243
       O    -3.30210   -8.41010   -5.83023
      H1    -3.79927   -8.64407   -6.67870
       H    -4.80838   -9.57433   -3.14916
       O    -4.31444  -10.07068   -3.82818
      H1    -3.44794  -10.27653   -3.46926
       H    -2.38685  -10.93839   -1.74704
       O    -1.92794  -10.61735   -2.54025
      H1    -1.43703   -9.83247   -2.23106

