105
frame 1 | Written by MDAnalysis XYZWriter (release 2.4.3)
       H   -12.97995    7.57498   -5.56297
       O   -12.21220    7.88324   -5.13989
      H1   -12.38740    8.02146   -4.20261
       H    -6.96365    6.66656   -8.46610
       O    -7.52548    7.04962   -7.73680
      H1    -8.40263    6.69214   -7.75489
       H   -14.37732    0.98409   -6.09171
       O   -13.56121    0.46916   -5.98350
      H1   -13.06305    0.64570   -6.74132
       H   -10.39522   -0.57420   -9.04791
       O   -10.36746    0.24325   -9.62317
      H1   -10.98560    0.05245  -10.37215
       H   -10.20189    5.83703   -7.84641
       O    -9.97899    5.98202   -8.77262
      H1    -9.80838    5.11163   -9.09105
       H   -11.10377    5.49376   -5.65595
       O   -10.17271    5.57685   -5.84222
      H1    -9.91128    6.34483   -5.30867
       H   -14.23098    6.29587   -1.97940
       O   -14.25615    6.67992   -2.88509
      H1   -14.07357    7.61156   -2.63862
       H   -17.36012    4.72521  -10.71531
       O   -18.29509    4.38965  -10.61610
      H1   -18.30169    3.64145  -10.02369
       H   -14.32583   -0.89109  -10.05988
       O   -14.24566   -1.85440   -9.99042
      H1   -14.26153   -2.17687  -10.88299
       H    -9.77466    3.65271   -5.90151
       O    -9.33015    2.81846   -6.04979
      H1   -10.00407    2.13341   -5.93890
       H   -14.65133    2.08647  -12.01295
       O   -15.20108    2.62458  -11.34793
      H1   -16.10820    2.47996  -11.64911
       H   -14.01340    8.57174  -12.01169
       O   -13.69503    7.66861  -12.23553
      H1   -12.79185    7.84047  -12.54742
       H   -12.74025    1.71334   -8.43636
       O   -11.94654    1.68187   -7.82023
      H1   -11.23978    1.48378   -8.42341
       H   -13.11613   10.25244   -7.42984
       O   -13.31710    9.78574   -8.28654
      H1   -13.11026   10.42867   -9.00117
       H   -10.85033    6.46985  -12.98394
       O   -11.01566    6.34449  -12.05557
      H1   -10.25644    6.28055  -11.48411
       H   -14.38259    3.70738  -10.32435
       O   -13.80842    4.31941   -9.81972
      H1   -13.97619    5.24723  -10.05809
       H    -7.77092    3.41910   -7.10137
       O    -6.87425    3.68737   -7.41979
      H1    -6.56385    4.24013   -6.68409
       H   -16.17699    4.33056   -3.93048
       O   -16.38737    5.24976   -4.16268
      H1   -15.51581    5.61917   -4.14563
       H   -14.59353    7.68978   -9.71741
       O   -15.56128    7.85594   -9.62012
      H1   -15.96585    7.22363  -10.26954
       H   -13.92591    5.59008   -6.94485
       O   -13.58124    4.63674   -6.93376
      H1   -13.34198    4.38732   -7.84495
       H   -12.51486    3.80941  -11.04089
       O   -11.80129    3.63675  -11.69964
      H1   -11.33422    4.49637  -11.86679
       H   -16.25964    2.48867   -7.29483
       O   -15.27879    2.40277   -7.10931
      H1   -15.00789    3.34867   -7.14828
       H    -9.72064    3.38011  -10.79821
       O    -9.10086    3.40671  -10.03682
      H1    -9.36683    2.68756   -9.45107
       H   -12.91215    7.19151  -10.52718
       O   -12.83875    6.96700   -9.60463
      H1   -11.91641    6.78120   -9.48083
       H   -17.78716    7.70080   -7.74739
       O   -16.98725    7.95262   -7.26549
      H1   -16.37895    8.08607   -8.00003
       H   -18.13218    0.43014   -6.70657
       O   -17.68455    0.40569   -7.64244
      H1   -18.26221    0.93703   -8.19253
       H   -14.39431    1.48742  -10.26981
       O   -14.26724    0.89901   -9.48779
      H1   -14.95364    1.17148   -8.87755
       H   -16.46768    6.13039  -12.44538
       O   -16.84247    6.35441  -11.53166
      H1   -17.70412    6.71629  -11.61371
       H   -13.91427    4.69834  -13.74822
       O   -13.32008    3.94894  -13.99103
      H1   -12.75209    3.68131  -13.23103
       H   -11.53521    9.12498   -8.03884
       O   -10.61865    8.95913   -7.85873
      H1   -10.66047    8.54949   -6.99957
       H   -12.26904    2.02184   -5.16011
       O   -12.31119    2.84653   -4.69385
      H1   -12.77263    3.47156   -5.31070
       H   -17.48003    4.17694   -5.76492
       O   -17.87003    3.37392   -6.14892
      H1   -18.76278    3.62775   -6.36228
       H   -13.78705    2.68692   -3.81469
       O   -14.73787    2.76764   -3.73317
      H1   -15.00073    1.84393   -3.88594
       H   -10.41885   -0.54255   -4.80464
       O   -10.39047    0.16524   -5.45687
      H1    -9.49498    0.09156   -5.79151
       H   -14.22214    7.59260   -7.57625
       O   -14.41484    7.09379   -6.74184
      H1   -15.37800    7.09775   -6.64598

