105
frame 0 | Written by MDAnalysis XYZWriter (release 2.4.3)
       H    16.98177   14.04467   -6.76188
       O    16.63546   14.72820   -6.17684
      H1    15.84654   14.43365   -5.77351
       H    18.11645   17.24804   -7.80619
       O    17.19490   16.94499   -7.77808
      H1    17.17563   16.18638   -7.22889
       H    13.29402   19.06971   -6.71097
       O    13.77119   18.66585   -5.98863
      H1    13.05800   18.17798   -5.53270
       H    14.53896   10.88431   -3.29217
       O    14.94515   11.29538   -4.04637
      H1    14.62125   12.22303   -4.03003
       H    18.08457   15.27591   -5.25116
       O    18.87629   15.40541   -4.73831
      H1    19.41528   14.62922   -4.82205
       H    15.26269   12.24488   -8.99669
       O    15.64688   12.46048   -8.14197
      H1    15.58375   13.39501   -8.17375
       H    11.91485   13.82931   -9.49897
       O    12.76749   13.82160   -9.90931
      H1    12.74987   14.36566  -10.72826
       H    14.94584   19.19237   -3.09321
       O    14.13297   19.65646   -3.32682
      H1    13.82409   19.37838   -4.20151
       H    11.19417   16.01915   -7.41648
       O    12.14830   16.05493   -7.41414
      H1    12.34828   15.17180   -7.05895
       H    15.94225   19.03700   -0.41852
       O    15.91324   19.65501   -1.13501
      H1    16.80117   19.67911   -1.46778
       H     9.49376   16.93504   -8.45804
       O     9.35377   16.14260   -7.91640
      H1     9.47918   15.32871   -8.45705
       H     7.09706   17.30181   -3.31655
       O     7.82904   17.85364   -2.91090
      H1     8.47295   17.82703   -3.59897
       H    12.46797   18.50199   -0.86887
       O    12.30008   18.56744   -1.78923
      H1    13.10940   18.96895   -2.21668
       H     5.79974   16.66180   -8.29220
       O     6.52469   16.66262   -8.94589
      H1     7.33569   16.40966   -8.48838
       H     8.87367   16.76207   -1.06693
       O     9.80176   16.77760   -0.74350
      H1     9.71784   16.61563    0.24232
       H    15.61377   19.41286   -9.10765
       O    16.55678   19.37730   -8.75746
      H1    16.59908   18.38114   -8.55347
       H     8.38616   19.49872   -8.34448
       O     9.27633   19.05506   -8.50927
      H1     9.41675   19.06178   -9.46587
       H     8.72415   13.02929   -5.01371
       O     9.60964   12.85765   -5.41731
      H1    10.20466   13.22994   -4.73961
       H    16.50164   16.87704   -0.21569
       O    16.07825   17.44728    0.47445
      H1    16.44716   17.08816    1.28572
       H    17.16813   12.68455   -1.41842
       O    16.64005   13.27545   -1.97607
      H1    17.11136   14.16843   -1.96762
       H    14.10925   14.90148   -9.09685
       O    15.02116   15.09163   -8.87422
      H1    15.00287   15.91245   -8.44470
       H    14.08117   17.59647    0.95210
       O    13.16179   17.95137    0.97376
      H1    12.61135   17.12212    1.10097
       H    11.32038   15.25403   -4.03363
       O    11.51635   14.41466   -3.59746
      H1    11.17122   14.57185   -2.67353
       H    10.81475   13.61577   -0.01070
       O    10.26950   13.92220   -0.80796
      H1    10.37621   14.89153   -0.79024
       H    13.53315   11.54197   -6.52208
       O    12.85050   10.86127   -6.39234
      H1    12.26050   10.96432   -7.18983
       H     9.17919   16.69067   -5.81922
       O     9.19583   17.56127   -5.40659
      H1     9.45499   18.15305   -6.08012
       H    16.10107   16.68979   -4.95340
       O    15.73175   16.75073   -4.11358
      H1    15.15754   15.94261   -4.13011
       H    10.77764   18.79176  -11.31563
       O     9.83499   18.57944  -11.13432
      H1     9.34217   19.39975  -11.32401
       H    12.07580   17.55857   -3.48175
       O    11.79075   17.41828   -4.38135
      H1    10.81413   17.54821   -4.42159
       H    13.91032   14.19280   -3.23283
       O    14.67686   14.01635   -3.71715
      H1    15.31476   13.66263   -3.09849
       H    10.96232   16.70918  -11.82215
       O    11.38639   15.85882  -11.99625
      H1    11.98806   16.06511  -12.72982
       H    18.83451   18.53695   -2.03124
       O    18.03646   18.72929   -2.59527
      H1    18.40462   19.11921   -3.35373
       H    16.45255   19.75947   -7.04702
       O    16.29638   19.84498   -6.05566
      H1    15.65804   19.19554   -5.96504
       H    16.83254   16.34375   -2.55843
       O    17.52625   15.86398   -2.02273
      H1    18.27272   15.85089   -2.64913
       H    12.47404   12.69205   -5.88597
       O    12.77313   13.57370   -6.07852
      H1    12.65021   14.03727   -5.21307

