105
frame 11 | Written by MDAnalysis XYZWriter (release 2.4.3)
       H   -16.35478   -1.27812  -10.00137
       O   -15.54736   -0.94752  -10.36378
      H1   -15.00529   -0.57364   -9.64318
       H   -11.36809   -0.60585  -10.21244
       O   -11.44970    0.23091   -9.72956
      H1   -11.74976    0.94997  -10.34226
       H   -14.39043   -2.30032  -11.20164
       O   -13.82936   -3.02973  -11.40359
      H1   -14.27365   -3.38991  -12.21154
       H    -8.74567   -0.48135   -9.22701
       O    -8.59529   -1.23679   -9.80990
      H1    -9.44927   -1.50338  -10.19590
       H   -10.83307  -10.07514  -12.46013
       O   -11.45177  -10.27282  -13.14297
      H1   -10.99770  -10.29210  -14.02498
       H   -16.40506   -4.14235  -12.62166
       O   -15.61462   -4.59118  -13.01034
      H1   -15.49102   -5.39796  -12.44597
       H   -12.99135   -6.09873  -10.85701
       O   -12.17521   -5.90609  -10.29025
      H1   -12.03026   -4.97496  -10.37601
       H   -14.49069   -9.40176  -13.85878
       O   -13.73542   -8.78994  -13.75821
      H1   -13.05935   -9.34653  -13.34127
       H   -13.75634   -3.42242   -4.82134
       O   -14.04454   -4.13484   -4.25263
      H1   -14.87412   -3.85892   -3.83513
       H   -11.68150   -9.18264   -6.32607
       O   -12.33334   -9.12341   -5.57656
      H1   -12.74454   -8.20556   -5.62879
       H   -15.69551   -4.02756   -8.39247
       O   -15.42861   -4.72931   -9.02145
      H1   -14.78771   -4.31199   -9.59308
       H    -6.63974   -6.85551   -9.12086
       O    -7.25168   -7.52140   -9.50258
      H1    -7.94565   -7.05335  -10.01087
       H    -9.10150   -6.99768   -4.56484
       O    -8.46381   -6.25020   -4.56535
      H1    -8.49064   -5.88022   -5.43354
       H   -17.47972   -3.04882   -6.90514
       O   -16.65812   -3.49297   -6.87920
      H1   -15.97576   -2.87117   -6.53882
       H   -18.07004   -4.80186  -10.92255
       O   -18.05996   -4.35397  -10.08021
      H1   -17.33604   -4.55658   -9.47004
       H   -13.74752   -7.79218   -8.32819
       O   -14.62455   -7.43246   -7.99495
      H1   -14.79151   -6.48544   -8.31660
       H    -8.94332   -5.14277   -7.38600
       O    -8.09935   -4.92919   -6.95793
      H1    -7.40779   -5.08685   -7.62491
       H   -13.71648   -6.97277   -6.59149
       O   -13.03724   -6.65896   -5.93202
      H1   -13.57140   -6.07601   -5.33990
       H    -9.96663   -6.03415  -12.53943
       O    -9.74725   -6.23059  -11.61314
      H1   -10.68439   -6.12613  -11.26781
       H   -15.04161  -11.09018  -10.64120
       O   -15.80066  -10.65937  -11.12727
      H1   -15.68399  -11.04632  -11.99751
       H    -9.36746  -10.03830  -11.29358
       O    -9.79868   -9.22071  -11.04358
      H1    -9.34527   -8.43950  -11.44441
       H    -7.51675   -8.73608   -8.31509
       O    -7.51085   -9.40635   -7.57984
      H1    -7.05198   -8.94786   -6.86712
       H   -11.65451   -6.22679   -7.09090
       O   -11.04888   -5.77582   -7.65688
      H1   -11.43529   -5.88467   -8.52749
       H   -10.78851   -9.04041   -8.09664
       O   -10.23874   -9.46560   -7.45435
      H1    -9.35129   -9.48374   -7.75149
       H   -17.53151   -8.24792   -8.27999
       O   -18.05821   -8.00900   -7.52157
      H1   -17.52347   -7.37376   -7.05283
       H   -10.95657   -5.97697  -14.67317
       O   -10.46136   -5.32310  -14.17719
      H1    -9.69697   -5.19043  -14.72185
       H   -11.20823   -2.77031   -9.42002
       O   -11.00108   -2.92368  -10.32142
      H1   -11.86943   -2.73525  -10.70147
       H   -15.61567   -8.02643   -9.29484
       O   -16.25437   -7.98155   -9.99449
      H1   -16.11321   -8.82033  -10.52696
       H    -8.54440   -3.16960   -7.16321
       O    -9.12547   -2.44301   -7.41875
      H1    -8.74328   -2.08970   -8.25817
       H    -9.11507   -3.30432  -12.19806
       O    -8.33363   -3.84732  -12.28285
      H1    -8.61407   -4.79239  -12.27797
       H   -12.00622   -7.90746   -9.36901
       O   -12.51046   -8.64377   -8.93309
      H1   -12.46881   -9.37758   -9.54709
       H   -13.25036  -12.36858   -9.88532
       O   -13.47511  -11.40271   -9.78868
      H1   -13.64143  -11.34136   -8.83363
       H   -11.64389   -3.95067   -7.29606
       O   -11.65281   -3.04374   -7.56864
      H1   -10.73126   -2.78548   -7.63216
       H   -12.93824   -8.97463  -17.02976
       O   -13.53739   -8.37275  -16.49751
      H1   -13.57758   -8.73431  -15.56287
       H   -14.85854   -7.43600  -10.86732
       O   -14.34788   -6.88248  -11.46994
      H1   -14.19300   -7.44646  -12.24303

