105
frame 3 | Written by MDAnalysis XYZWriter (release 2.4.3)
       H   -17.18044   10.86089  -10.38896
       O   -17.52938    9.94074  -10.46218
      H1   -18.25610    9.74278   -9.84701
       H   -17.53032   -2.14820  -12.21901
       O   -16.87214   -1.57394  -12.62697
      H1   -16.75252   -1.80771  -13.56541
       H   -18.00407    1.11559  -15.03063
       O   -18.15942    1.70278  -14.26467
      H1   -17.68411    2.47011  -14.68872
       H   -15.69664    0.01189  -13.05908
       O   -14.82788    0.44963  -12.95364
      H1   -14.12858    0.03234  -13.47219
       H   -18.00897    3.92922  -10.27553
       O   -18.35718    3.21345  -10.77725
      H1   -18.79359    2.55286  -10.22552
       H   -13.69508    1.61344  -15.39233
       O   -14.28963    2.18651  -15.91429
      H1   -15.09801    2.47850  -15.46774
       H   -16.60939    6.49621  -16.32952
       O   -16.88552    5.69486  -16.79066
      H1   -16.83630    5.89481  -17.70643
       H   -16.08790    0.61588  -17.67938
       O   -15.46497   -0.00863  -17.21392
      H1   -14.88815    0.62767  -16.80214
       H   -19.43892    3.74727  -17.82945
       O   -19.48189    2.88976  -18.33660
      H1   -19.00811    2.23015  -17.73908
       H   -13.58774    6.78029  -17.25643
       O   -13.54889    7.60582  -17.79009
      H1   -13.77581    8.34197  -17.14536
       H   -15.67432    1.69160  -11.91391
       O   -15.84419    2.50862  -11.36307
      H1   -16.80887    2.63396  -11.21145
       H   -14.57051   10.44464  -19.11137
       O   -15.44814   10.20244  -19.37089
      H1   -15.23101    9.30431  -19.74149
       H   -16.49270   10.48368  -17.94178
       O   -16.99336   10.63496  -17.14878
      H1   -16.95849    9.83521  -16.63783
       H   -17.07993    6.39643  -12.95311
       O   -16.38411    6.44354  -12.28789
      H1   -16.08370    7.38266  -12.32498
       H   -15.42055    0.37330  -19.46612
       O   -14.46944    0.43357  -19.65671
      H1   -14.18497    0.26327  -18.75068
       H   -19.96105    8.76538  -17.32524
       O   -19.99173    9.43197  -18.04061
      H1   -19.12337    9.80672  -18.15092
       H   -17.10331    8.25579  -15.02705
       O   -16.34960    8.16561  -15.59101
      H1   -15.53571    8.34289  -15.01016
       H   -19.76358   -2.74965  -15.89291
       O   -19.12039   -2.59704  -16.62470
      H1   -19.28268   -1.70006  -16.97707
       H   -18.69789    4.02651  -12.37998
       O   -18.69124    4.49155  -13.18111
      H1   -19.43073    4.00703  -13.61823
       H   -17.32829    1.49958  -19.68819
       O   -17.14470    0.79099  -19.01473
      H1   -17.29800   -0.03296  -19.54469
       H   -15.38703    1.85681   -9.79596
       O   -14.90303    1.44389   -9.07117
      H1   -15.11878    1.96122   -8.29689
       H   -17.13968    5.88906  -10.73302
       O   -17.39153    5.54552   -9.84615
      H1   -18.14241    6.07583   -9.59688
       H   -15.20088   10.95527  -14.02639
       O   -16.14347   11.03961  -13.74291
      H1   -16.61967   10.59709  -14.49067
       H   -14.73705    5.54054  -11.61746
       O   -14.06420    4.82953  -11.53552
      H1   -14.59002    4.05918  -11.73876
       H   -16.26431   -0.94384  -16.17759
       O   -16.60469   -1.58323  -15.45851
      H1   -17.29289   -2.18587  -15.79302
       H   -17.72906   13.26135  -15.41216
       O   -17.69138   13.16094  -16.37814
      H1   -17.59545   12.21010  -16.53177
       H   -13.97670    4.49833  -18.26977
       O   -13.52735    4.57077  -17.37649
      H1   -13.84749    3.77544  -16.95045
       H   -20.02720    4.78118  -15.96642
       O   -19.49649    5.22677  -16.64187
      H1   -18.53362    5.22388  -16.44315
       H   -13.83065   10.89340  -16.49011
       O   -14.09942   10.06512  -16.00009
      H1   -13.26207    9.79721  -15.54612
       H   -18.74571   10.68796  -11.67066
       O   -19.26393   11.01433  -12.39001
      H1   -20.11491   11.22110  -11.99365
       H   -12.77579    6.48389  -13.88308
       O   -12.87044    7.18463  -14.52329
      H1   -12.61306    7.93408  -13.97793
       H   -16.36303    4.52131  -15.43022
       O   -16.43454    3.78053  -14.84835
      H1   -16.15538    4.12162  -14.00657
       H   -14.18452    8.85778  -11.90345
       O   -15.10457    8.73310  -12.18114
      H1   -15.46210    9.60125  -12.33644
       H   -18.87817    7.50597   -7.44569
       O   -19.05033    6.56461   -7.13839
      H1   -19.58101    6.21628   -7.87173
       H   -19.46533    8.38511  -14.65064
       O   -18.79632    8.67461  -13.93757
      H1   -19.10872    9.53104  -13.57741

