105
frame 11 | Written by MDAnalysis XYZWriter (release 2.4.3)
       H   -16.34604   -7.27335    8.80466
       O   -17.11571   -7.79991    8.98205
      H1   -17.91340   -7.18536    8.83396
       H   -17.83397  -10.15370   11.93838
       O   -17.36139  -11.02513   11.92738
      H1   -18.05467  -11.69862   12.13702
       H   -12.32147   -8.46099   17.28530
       O   -13.20138   -8.39928   17.76258
      H1   -13.11975   -7.55335   18.20817
       H   -16.71023   -4.00245   15.10823
       O   -15.73597   -3.85628   15.09073
      H1   -15.64817   -3.47474   15.98502
       H   -13.28258   -2.96467   16.16914
       O   -12.45397   -3.05565   15.68290
      H1   -12.59004   -3.36583   14.77938
       H   -13.56561   -8.81090   16.05632
       O   -13.82103   -9.44655   15.39930
      H1   -14.18648  -10.18834   15.86944
       H   -11.82734   -6.86266   10.21085
       O   -12.74764   -7.16644    9.95383
      H1   -13.17548   -7.02827   10.83051
       H   -15.60154   -3.08308   13.22699
       O   -15.42950   -2.81113   12.30412
      H1   -16.25527   -2.34464   12.02573
       H   -18.22858   -8.07348   10.83586
       O   -18.60422   -8.45756   11.64752
      H1   -19.51508   -8.59646   11.34839
       H   -16.59197  -10.38468   13.76575
       O   -16.45490   -9.78001   14.52458
      H1   -15.54005   -9.56337   14.59671
       H   -15.31771   -6.35270    9.97649
       O   -15.25020   -5.86247    9.15754
      H1   -14.30781   -5.63505    9.03167
       H   -16.94392   -6.99612   14.57248
       O   -17.19989   -6.73879   13.70805
      H1   -17.74557   -7.45488   13.35837
       H   -14.40423    0.81065   12.64377
       O   -14.64624    1.62489   12.18904
      H1   -15.43307    1.36119   11.70589
       H   -18.23395   -3.31687   15.06892
       O   -18.43990   -4.14724   14.66758
      H1   -18.53526   -4.92936   15.31512
       H   -12.69416   -3.57551   11.64726
       O   -12.90113   -3.08125   10.81308
      H1   -13.86181   -2.83874   10.74112
       H   -14.42408  -10.75432   12.79471
       O   -14.74384  -10.32839   12.00644
      H1   -15.55171  -10.79956   11.79722
       H   -19.81352   -3.98993   18.31463
       O   -18.90595   -3.74541   18.06688
      H1   -18.46947   -3.83827   18.92938
       H   -14.26667   -1.56072   12.68193
       O   -13.82083   -0.75745   13.06230
      H1   -12.91298   -1.01854   13.10356
       H   -18.62860   -2.12163   18.13926
       O   -18.38481   -1.13351   18.27158
      H1   -19.25547   -0.72294   18.46444
       H   -19.60841   -2.91174    9.68709
       O   -19.15182   -3.32843    8.95599
      H1   -19.53504   -2.91961    8.17380
       H   -16.75779    0.84245   18.87448
       O   -16.98021    0.65190   19.80390
      H1   -17.39857   -0.20460   19.63715
       H   -14.28705   -0.98739    9.48255
       O   -15.08501   -1.17148    9.95137
      H1   -15.56016   -1.84267    9.46415
       H   -15.99822   -8.59461   18.84571
       O   -16.05083   -9.25138   18.10620
      H1   -15.12256   -9.24473   17.72825
       H   -15.61788   -6.53624   16.43376
       O   -16.34848   -7.21042   16.31683
      H1   -16.19789   -7.88521   16.99927
       H   -18.66019   -5.54028   17.24223
       O   -18.90947   -6.09891   16.49539
      H1   -18.27344   -6.79901   16.56331
       H   -12.61890   -5.09284   13.78900
       O   -12.05197   -4.37786   13.41890
      H1   -11.15040   -4.64710   13.68456
       H   -14.49116   -2.68885   18.16653
       O   -14.62428   -2.65929   17.20455
      H1   -15.12538   -1.84525   16.99051
       H   -18.73871   -0.40493   12.67023
       O   -18.13665   -1.11812   12.65953
      H1   -18.04447   -1.43010   13.59885
       H   -17.07757   -1.34981   15.53472
       O   -17.94622   -1.64698   15.27775
      H1   -18.64996   -1.24966   15.79359
       H   -18.56580  -10.02721   17.26112
       O   -18.64086   -9.51770   16.39978
      H1   -17.74319   -9.60754   15.97991
       H   -16.10679    2.06768   16.92478
       O   -15.99301    1.11549   17.22347
      H1   -15.22116    1.07526   17.82267
       H   -15.28986    0.20402   15.74104
       O   -15.39496   -0.62412   15.27209
      H1   -14.66559   -0.70970   14.56150
       H   -17.47415   -3.42141    8.95088
       O   -16.52202   -3.39875    8.72639
      H1   -16.15975   -4.23466    9.07493
       H   -14.58111   -6.23672   13.43172
       O   -14.11369   -5.77545   14.14626
      H1   -14.60938   -4.98818   14.40598
       H   -15.95445   -7.31881   12.41527
       O   -15.19723   -7.56497   11.87761
      H1   -14.98381   -8.44965   12.09505

