105
frame 8 | Written by MDAnalysis XYZWriter (release 2.4.3)
       H     7.00653   -0.30045    3.04402
       O     7.45423   -1.09226    3.41863
      H1     7.32819   -1.77460    2.78833
       H     5.12552   -8.55377    2.95691
       O     5.15763   -7.97335    2.15340
      H1     4.27923   -7.88903    1.72470
       H     0.74186   -8.23497    1.24768
       O     0.71215   -7.94625    0.34987
      H1     1.61591   -7.69871    0.11742
       H     4.25029   -8.16740    5.57137
       O     3.90928   -7.42181    6.13375
      H1     4.41907   -6.63625    5.72832
       H     7.26347   -2.69532    0.57076
       O     7.09745   -3.03153    1.49708
      H1     6.13821   -3.12503    1.48296
       H     5.29069   -7.52059    7.45172
       O     6.04489   -7.62871    8.06009
      H1     6.77118   -8.08592    7.59205
       H    -1.07932   -6.13345    5.83489
       O    -0.95642   -6.98697    6.34400
      H1    -1.79131   -7.43559    6.26276
       H     2.39285   -6.42400    3.42965
       O     1.85256   -7.23628    3.47253
      H1     1.97875   -7.63829    4.33069
       H     4.39591   -4.23435    8.08053
       O     5.06709   -4.36808    8.76743
      H1     4.57556   -4.72273    9.56141
       H     0.19313   -4.94079    0.70745
       O     0.00516   -4.24193    0.03058
      H1     0.83383   -3.97370   -0.36518
       H     2.59953   -3.28925    7.23348
       O     2.69988   -4.12768    6.81315
      H1     2.22263   -4.71321    7.41858
       H     6.16721   -6.36588    1.66973
       O     6.79827   -5.85941    1.15979
      H1     6.76947   -5.01783    1.56358
       H     4.68601    0.02966    5.95435
       O     3.77123    0.43258    6.11346
      H1     3.92311    1.15399    6.74636
       H     0.49372   -2.40943    3.00586
       O     1.23065   -2.68178    3.49653
      H1     0.97754   -2.83044    4.39386
       H     4.49695  -10.95487    1.48721
       O     5.26565  -10.62958    1.00166
      H1     5.30724   -9.67766    1.27242
       H     1.98310   -1.75191   -0.79273
       O     2.57329   -2.53403   -0.90575
      H1     3.11794   -2.20214   -1.63434
       H     2.61070   -4.48381   -1.37624
       O     3.01778   -5.23411   -1.78861
      H1     2.39209   -5.71353   -2.33735
       H     5.03314   -4.63835    5.96025
       O     5.33372   -5.11119    5.18906
      H1     4.69285   -4.96042    4.45838
       H     3.92503   -4.33608    2.17183
       O     3.59825   -4.63598    3.02010
      H1     2.91772   -4.00825    3.26896
       H     2.97344   -0.10773    4.57073
       O     2.46919   -0.21312    3.71418
      H1     2.19554   -1.15217    3.71864
       H     7.06156   -4.99882    4.93685
       O     7.99767   -4.91172    4.95135
      H1     8.25669   -5.71417    4.43599
       H     3.02297   -7.87804    7.64891
       O     2.81438   -8.43474    8.38621
      H1     1.89786   -8.31575    8.73517
       H     4.94027   -4.99047   -2.46983
       O     5.83697   -4.69602   -2.70911
      H1     6.14490   -5.03829   -3.56385
       H     2.79387   -0.74741    6.88074
       O     2.35377   -1.44335    7.37945
      H1     2.71024   -1.41312    8.29340
       H     6.10468   -1.92598    6.31896
       O     6.07983   -1.12355    5.80132
      H1     6.53886   -1.30680    4.96132
       H    -1.54645   -4.26639    5.64169
       O    -1.49634   -4.70458    4.81221
      H1    -2.29732   -5.17954    4.58485
       H     4.30279  -10.28960    3.84001
       O     4.75675   -9.52950    4.22721
      H1     5.55894  -10.02031    4.56307
       H     3.63670   -8.05983   -0.39391
       O     3.30655   -7.28121    0.07920
      H1     3.35348   -6.56137   -0.59295
       H     3.87785   -3.22515   -0.03376
       O     4.49874   -3.60224    0.61104
      H1     5.09749   -4.24808    0.19997
       H    -1.35642   -1.84936    1.56380
       O    -0.39873   -1.98966    1.47448
      H1    -0.32120   -2.76839    0.89297
       H     9.03339   -7.47966   -0.18394
       O     8.84395   -7.77154    0.70287
      H1     8.04342   -7.33503    1.01127
       H     6.41592   -4.00485    7.82450
       O     7.01282   -3.56870    7.21151
      H1     7.68274   -4.24593    7.26899
       H     4.85736    0.85020    2.13859
       O     4.16117    0.36943    1.70806
      H1     3.56323    0.02811    2.43109
       H    -0.70654   -5.45328    3.11740
       O    -0.47602   -6.00734    2.39299
      H1     0.36278   -6.44367    2.65063
       H     0.39666   -0.94498    0.37544
       O     0.69557   -0.42851   -0.40697
      H1    -0.09908   -0.14460   -0.92639

