105
frame 3 | Written by MDAnalysis XYZWriter (release 2.4.3)
       H    -4.97849   -4.29080  -11.11781
       O    -4.72100   -4.35821  -10.17498
      H1    -4.11140   -3.67648   -9.95219
       H   -10.17266   -0.87483  -10.69208
       O   -10.37257   -0.37520  -11.49427
      H1   -11.09827   -0.95786  -11.86860
       H    -4.71053   -2.72493   -7.09226
       O    -4.04855   -2.08798   -7.48896
      H1    -4.42061   -1.55498   -8.18887
       H    -9.02596   -4.55634  -16.33833
       O    -9.45735   -5.26599  -16.86849
      H1    -9.84623   -4.87015  -17.64974
       H    -9.20332   -1.42752   -8.70592
       O    -9.36814   -1.96777   -9.45580
      H1    -8.61574   -1.96609  -10.05896
       H    -6.38130  -10.92773  -10.52124
       O    -6.27352   -9.98259  -10.85490
      H1    -5.34371   -9.79941  -10.81131
       H    -8.76235   -9.72263  -12.88075
       O    -9.52259  -10.32090  -12.98747
      H1    -9.29583  -11.04546  -13.54399
       H   -12.91616   -6.49236   -9.57514
       O   -13.63568   -5.91006   -9.23752
      H1   -13.24333   -5.05855   -9.46709
       H    -6.35447   -4.48353   -9.09701
       O    -6.83232   -4.93377   -8.37548
      H1    -7.12347   -5.74028   -8.76894
       H    -5.87907   -9.21869  -14.64840
       O    -5.92744   -9.86195  -15.36055
      H1    -6.84635  -10.02250  -15.53215
       H   -13.33559   -1.08008   -9.00642
       O   -12.42052   -1.16054   -9.19977
      H1   -12.36044   -0.55092  -10.00646
       H   -10.15007   -5.38702   -6.41955
       O    -9.68461   -6.13487   -6.02006
      H1    -9.72936   -6.86432   -6.63116
       H   -13.27773   -2.20271  -12.09873
       O   -12.46290   -2.06230  -12.64304
      H1   -12.68920   -1.55619  -13.40513
       H   -11.14685   -6.55875  -14.77981
       O   -11.36346   -5.63793  -14.97583
      H1   -10.78851   -5.25459  -15.66080
       H    -7.64114    0.96605  -12.42271
       O    -7.98430    0.14382  -12.90105
      H1    -8.88767    0.04018  -12.55174
       H   -11.67962   -7.86187   -9.31465
       O   -11.15883   -7.22322   -9.86993
      H1   -11.54990   -7.42767  -10.72564
       H    -7.47666   -2.84246  -11.31673
       O    -7.01084   -1.99855  -11.17539
      H1    -7.26999   -1.42388  -11.88734
       H    -7.08111   -8.30305  -12.19929
       O    -7.60405   -8.23617  -13.02775
      H1    -7.36785   -7.36565  -13.43055
       H    -7.72057   -8.05037  -10.13630
       O    -7.13296   -7.28888  -10.03104
      H1    -6.35672   -7.69059   -9.57715
       H   -10.94958   -3.39111  -12.63045
       O   -10.40147   -3.79904  -13.30430
      H1   -10.89299   -4.50923  -13.69140
       H    -9.38534   -2.50130  -15.94033
       O    -8.76897   -2.99275  -15.35183
      H1    -9.30611   -3.11105  -14.55052
       H    -7.21746   -6.70044  -17.62010
       O    -7.67849   -7.23479  -16.89850
      H1    -8.41300   -6.65670  -16.64528
       H    -4.37250   -5.86983   -9.06363
       O    -4.34185   -6.68919   -8.57689
      H1    -3.53930   -7.18630   -8.80186
       H   -13.10846   -8.40158  -11.79696
       O   -12.97576   -7.49001  -12.14755
      H1   -12.39692   -7.67864  -12.92804
       H    -9.23984    1.25526  -13.36423
       O    -9.96502    1.82240  -13.70336
      H1   -10.26144    2.41183  -12.97180
       H   -10.96938   -3.69255  -10.02334
       O   -11.91600   -3.63985  -10.15120
      H1   -12.09102   -2.77149   -9.88921
       H    -3.15799   -5.77605  -11.00843
       O    -2.53246   -6.44691  -11.33534
      H1    -2.48556   -6.42515  -12.30232
       H    -9.46337   -3.08161   -6.34030
       O   -10.39121   -3.04379   -6.64820
      H1   -10.35749   -2.84202   -7.58642
       H    -3.22723   -5.72865  -14.64822
       O    -3.76644   -6.24165  -14.01518
      H1    -4.73099   -6.13991  -14.34272
       H    -9.05759   -4.51812  -12.30288
       O    -8.31315   -4.42647  -11.67550
      H1    -8.27586   -5.18400  -11.11955
       H    -5.64418   -0.31809   -8.89015
       O    -5.04945   -0.75844   -9.48861
      H1    -5.58014   -1.26610  -10.09089
       H    -6.27358   -3.09055  -15.01547
       O    -5.64670   -3.72204  -14.73379
      H1    -5.30027   -4.23372  -15.45465
       H    -6.52174   -5.41699  -14.61732
       O    -6.42530   -6.37331  -14.54406
      H1    -6.97785   -6.70624  -15.28167
       H   -10.78586   -8.42198  -15.63283
       O   -10.95127   -8.15798  -14.69320
      H1   -10.36165   -8.65688  -14.08171
       H    -5.17003   -4.38839   -6.22884
       O    -5.74381   -3.62766   -6.24880
      H1    -6.41726   -3.94427   -6.88167

