105
frame 11 | Written by MDAnalysis XYZWriter (release 2.4.3)
       H   -11.81027    7.04152   -4.33722
       O   -11.00518    6.93600   -3.83605
      H1   -11.15609    6.66303   -2.87265
       H    -9.39203    8.37449   -7.48524
       O    -8.73687    7.94028   -8.04398
      H1    -9.12806    7.05717   -8.18674
       H   -12.89188    3.43911   -4.45466
       O   -12.27952    3.17160   -5.20725
      H1   -11.80688    2.42965   -4.82738
       H    -9.59764    5.23075   -7.01189
       O    -9.36424    5.40265   -7.96327
      H1    -8.93298    4.53337   -8.24488
       H   -14.16918   11.63204  -10.43146
       O   -14.20503   11.81637   -9.49360
      H1   -14.99204   12.38393   -9.39280
       H   -10.99162    4.10937   -5.19900
       O   -10.20146    4.72008   -5.03408
      H1   -10.64473    5.41617   -4.48610
       H   -15.49970    5.96352   -2.74167
       O   -14.68179    5.96734   -2.19561
      H1   -14.30883    6.83318   -2.46110
       H   -10.04120   11.07998   -7.62089
       O   -10.25753   10.22132   -7.29001
      H1   -10.23342   10.38501   -6.34143
       H   -13.85633    9.48646    0.01411
       O   -13.10911    8.89135   -0.16233
      H1   -13.12736    8.28662    0.60916
       H   -14.73455    8.25148   -3.40747
       O   -13.83670    8.38362   -3.08621
      H1   -13.85045    8.95022   -2.27927
       H   -13.72376   12.83331   -4.47860
       O   -14.30882   12.93547   -5.22117
      H1   -13.72014   13.04652   -6.00562
       H   -11.84384    9.22368   -7.99371
       O   -12.41360    8.47392   -8.00793
      H1   -13.29564    8.82633   -8.02392
       H   -11.48668    8.26004   -9.94181
       O   -11.62799    7.71505  -10.74491
      H1   -12.47536    8.06118  -11.13047
       H   -14.38418   13.75840   -2.27378
       O   -13.98521   12.97457   -1.86419
      H1   -14.65376   12.29903   -1.68692
       H   -18.03716    9.77542   -4.89976
       O   -18.94526    9.72436   -4.48639
      H1   -18.71793    9.19422   -3.68024
       H   -15.53513    6.64609   -9.55595
       O   -15.94774    7.28187  -10.19795
      H1   -16.67371    6.88296  -10.65829
       H   -13.96238    6.28075   -7.82465
       O   -14.08344    5.50972   -8.45019
      H1   -13.28382    5.51020   -8.98175
       H   -16.31056    9.47434   -4.19331
       O   -16.29708    8.54027   -4.43574
      H1   -16.58126    8.46625   -5.39230
       H   -14.05165    3.05633   -6.38535
       O   -14.42105    2.76296   -7.19937
      H1   -14.60096    3.56762   -7.70981
       H   -11.50877    6.19115  -10.09496
       O   -11.54929    5.25947   -9.80232
      H1   -10.89522    5.11827   -9.12056
       H   -17.96203    7.80092   -7.50512
       O   -17.32726    8.31798   -6.91673
      H1   -16.60979    8.61391   -7.51393
       H   -11.51704   11.06148   -1.67488
       O   -11.79955   11.43229   -2.51929
      H1   -12.47124   12.10925   -2.27884
       H   -15.78010   10.27677    0.54269
       O   -15.40845   10.73558   -0.21414
      H1   -16.06865   10.71263   -0.92719
       H   -17.55651    6.20968   -3.08770
       O   -17.06058    5.43223   -3.44514
      H1   -16.90871    5.52255   -4.37773
       H   -13.20298   12.80842   -8.32399
       O   -12.63597   13.10017   -7.61510
      H1   -12.82001   14.07644   -7.50792
       H   -11.13208   10.06184   -3.92990
       O   -10.44149    9.66709   -4.40273
      H1   -10.63967    8.75222   -4.16986
       H   -14.21059    3.16398   -2.37781
       O   -13.35767    3.61636   -2.51858
      H1   -13.64203    4.55213   -2.52614
       H   -16.30870   10.75587   -6.97002
       O   -16.35875   11.17844   -6.10504
      H1   -15.46671   11.47070   -5.88974
       H   -17.55205    5.33818   -7.05847
       O   -17.62200    4.70951   -6.36105
      H1   -18.36110    4.09430   -6.56261
       H   -10.52627    6.06420   -0.95183
       O   -11.21549    6.68596   -1.14598
      H1   -11.81591    6.74091   -0.41125
       H   -17.33630   10.14935   -2.25272
       O   -16.62496   10.75387   -2.59974
      H1   -17.06524   11.51588   -2.95174
       H    -7.97879    9.51270   -2.30021
       O    -7.80752    8.89252   -3.06738
      H1    -8.63595    8.44690   -3.09350
       H   -10.79693   12.79279   -2.93467
       O   -10.22107   13.50853   -3.27171
      H1    -9.49319   13.02937   -3.71220
       H   -12.67878    7.91105   -6.38809
       O   -13.30273    7.53745   -5.69655
      H1   -13.48400    8.23734   -5.07253
       H   -15.37839    8.83288   -9.34139
       O   -15.08215    9.34487   -8.54994
      H1   -14.89778   10.22167   -8.93042

