105
frame 7 | Written by MDAnalysis XYZWriter (release 2.4.3)
       H   -15.76200   -5.62176    9.87055
       O   -16.38532   -6.38358    9.85816
      H1   -17.16793   -6.03435    9.44070
       H   -14.20212  -11.96106    9.83944
       O   -14.69277  -12.40013    9.16650
      H1   -15.03437  -11.75011    8.60468
       H   -17.86982   -9.88994   11.92715
       O   -18.11699  -10.75542   12.28656
      H1   -19.07766  -10.95603   12.34896
       H   -16.87379   -4.81390   13.34111
       O   -16.12176   -4.19312   13.48380
      H1   -16.13767   -4.21314   14.43959
       H    -7.06659   -7.13333    9.77285
       O    -8.01272   -7.20299    9.69105
      H1    -8.22073   -8.14754    9.66391
       H   -14.24693  -10.03257   15.21200
       O   -13.95100  -10.83502   15.63540
      H1   -13.25366  -10.55837   16.32874
       H   -13.46385   -8.34297    8.45454
       O   -14.19296   -8.81840    8.85738
      H1   -14.83683   -8.14621    9.05143
       H   -10.03154   -8.52186   15.77612
       O    -9.56408   -9.30367   15.68010
      H1    -9.57811   -9.49139   14.77347
       H   -16.46227   -2.67350   12.53318
       O   -16.25734   -2.18251   11.71400
      H1   -17.09536   -1.70231   11.58353
       H   -17.37974   -7.42842   11.01038
       O   -18.02248   -8.02982   11.47408
      H1   -18.82566   -8.05714   10.90634
       H    -9.56930  -10.03125    9.69507
       O    -8.88867   -9.75251    9.06267
      H1    -8.32312  -10.46937    8.79412
       H   -11.46502  -10.37778   10.94770
       O   -10.54635  -10.60921   10.92113
      H1   -10.57210  -11.39544   10.32080
       H   -17.66610  -10.48965   14.17768
       O   -17.59036  -10.19568   15.09341
      H1   -16.75266   -9.75082   14.99960
       H    -9.81566   -4.60744    8.98532
       O    -9.29945   -4.60762    8.16189
      H1    -9.27673   -5.53034    7.88623
       H   -18.08014  -10.23848    9.17990
       O   -17.76577   -9.44804    8.75712
      H1   -17.28871   -9.04732    9.52255
       H   -14.26562   -5.25920   11.47929
       O   -14.50502   -4.58530   10.85918
      H1   -13.75957   -4.56600   10.27736
       H   -17.42764   -6.56527   14.04803
       O   -17.94504   -6.15807   13.39447
      H1   -17.93210   -6.78320   12.65566
       H   -11.74957  -10.98821   13.53486
       O   -10.78813  -11.23173   13.60610
      H1   -10.41221  -11.29408   12.69580
       H    -7.24584   -7.68344   15.33274
       O    -7.38542   -7.12485   14.54962
      H1    -8.05559   -7.62362   14.02203
       H   -14.94161  -12.30195   12.69588
       O   -15.27981  -11.38584   12.72539
      H1   -16.22126  -11.54998   12.62211
       H   -13.38867   -7.33455   11.87445
       O   -13.94462   -7.07450   12.60706
      H1   -13.37494   -6.41211   13.11609
       H   -13.94485  -10.50154   11.76374
       O   -13.27334  -10.46614   11.02956
      H1   -13.56881   -9.74955   10.40287
       H    -8.97818   -5.88700   10.69535
       O    -9.68046   -5.58351   11.30796
      H1    -9.27590   -4.90822   11.85329
       H   -11.42769   -7.84306    8.11072
       O   -12.19896   -7.49168    7.75737
      H1   -11.96861   -7.28624    6.75383
       H   -13.74736   -6.70938   16.40309
       O   -14.09295   -5.85462   16.02920
      H1   -15.02097   -5.98704   15.81459
       H   -16.86200   -7.24010   16.13445
       O   -16.80312   -6.29853   15.81084
      H1   -17.68946   -5.97986   15.90925
       H   -11.66134   -3.62918   13.24141
       O   -10.90131   -3.03237   13.25052
      H1   -10.82790   -2.57858   12.41157
       H   -12.33685   -6.81837    9.86758
       O   -11.98107   -7.22191   10.66020
      H1   -11.29330   -6.63217   10.93380
       H    -9.36456   -7.32016   12.35709
       O    -9.47436   -8.10595   12.83678
      H1    -9.11547   -8.76835   12.22926
       H   -15.36972   -9.95460    7.42469
       O   -15.29539  -10.68225    6.79342
      H1   -14.32291  -10.62886    6.53297
       H   -13.46509   -5.88707    7.28520
       O   -14.05311   -5.50261    6.63563
      H1   -14.63585   -4.84555    7.12001
       H   -15.86326   -2.95808    7.15516
       O   -15.52835   -3.47900    7.86920
      H1   -16.25571   -3.74295    8.41691
       H   -13.21169   -4.85110   14.93828
       O   -13.02345   -4.37307   14.09699
      H1   -13.92715   -4.19648   13.84930
       H   -11.61785   -3.36949    9.72197
       O   -12.12917   -4.08662    9.26259
      H1   -12.09608   -3.89021    8.32930
       H   -15.14933   -9.64618   13.51877
       O   -15.02565   -8.92558   14.12168
      H1   -14.50798   -8.24942   13.62140

