105
frame 5 | Written by MDAnalysis XYZWriter (release 2.4.3)
       H    -6.46791    4.37914   11.03887
       O    -5.97868    4.85739   11.78088
      H1    -5.48213    4.16175   12.18589
       H    -0.41081    3.90659   13.24734
       O    -0.86302    4.02999   14.06225
      H1    -0.65447    3.39120   14.75341
       H    -4.03509    3.83720   16.81017
       O    -3.32297    4.06801   17.44900
      H1    -2.87007    4.82667   16.95414
       H     3.16719    6.03524   16.40211
       O     3.89966    6.69312   16.40454
      H1     3.44586    7.50558   16.33917
       H    -0.46733   -0.94208   13.29661
       O    -1.28874   -0.98203   12.72022
      H1    -1.64541   -0.11972   12.83089
       H     1.50322   10.00599   20.28320
       O     0.95237   10.55607   19.67583
      H1     0.67378    9.97297   18.95080
       H     0.22042    5.94403    9.40628
       O    -0.39284    5.56367   10.05869
      H1    -0.51005    6.33884   10.71244
       H    -3.86408    6.60727    9.95184
       O    -4.05743    6.79591    9.06000
      H1    -4.18325    7.78315    8.99311
       H    -0.11203    0.85585   15.29963
       O    -0.12477    1.82979   15.52616
      H1    -0.54310    1.66626   16.35216
       H    -1.28887   10.96190   12.37748
       O    -1.60792   10.07875   12.52766
      H1    -1.35976    9.76518   13.39654
       H     2.02422    9.33378   14.78228
       O     2.04636    8.95836   15.70107
      H1     2.80303    9.36594   16.13347
       H    -7.66736    7.63220   15.16345
       O    -6.88949    7.78733   14.59526
      H1    -6.01964    7.64647   15.13942
       H    -7.81602    7.01662   17.34853
       O    -7.21185    6.95982   18.08292
      H1    -6.32739    6.96285   17.60322
       H    -1.26280    0.46074   18.97661
       O    -1.18625   -0.49739   18.94024
      H1    -1.26837   -0.77602   19.86809
       H    -0.46268    6.24993   19.53589
       O    -0.29869    6.21101   18.58699
      H1     0.49291    6.80884   18.49629
       H    -4.95522    1.66789   16.83511
       O    -4.19657    1.09246   16.75385
      H1    -3.65523    1.30891   17.53668
       H    -1.62077    5.54764   15.46456
       O    -2.04191    5.95600   16.22824
      H1    -1.31474    6.11478   16.88526
       H     0.70763    5.70842   14.81872
       O     1.09554    6.54960   14.42822
      H1     1.35584    7.08647   15.11143
       H    -1.33029    3.16746   18.15922
       O    -0.88413    2.36383   18.37881
      H1    -0.19631    2.62175   19.05473
       H     1.31495    4.67025   17.42864
       O     1.84732    4.82182   16.63106
      H1     2.32469    4.01451   16.44567
       H    -2.18617   10.19803   15.13970
       O    -1.99588    9.24852   15.06293
      H1    -1.34206    9.02726   15.78737
       H    -7.46001    6.08066   14.15922
       O    -7.78772    5.27373   13.76262
      H1    -7.15006    5.10395   13.04474
       H     1.85308    2.13901   15.97287
       O     2.76156    2.31639   16.10902
      H1     2.96195    1.77891   16.93937
       H     2.88312    4.69445   12.32043
       O     3.21238    5.25964   12.97120
      H1     2.39306    5.39094   13.52198
       H    -1.41284   10.17257   19.65001
       O    -2.33872   10.27259   19.57161
      H1    -2.73607    9.41193   19.37854
       H     3.33286    6.78679   12.24223
       O     3.48220    7.68396   11.91327
      H1     4.38460    7.94536   12.27123
       H     0.78063    9.51795   16.66823
       O    -0.02676    9.43747   17.25214
      H1    -0.32794   10.34344   17.42873
       H    -2.36360    2.22232   13.60635
       O    -2.80210    1.38401   13.80555
      H1    -2.86942    1.40290   14.72164
       H    -0.02722    7.08277   13.16744
       O    -0.55303    7.25712   12.35480
      H1    -0.89202    8.15018   12.35404
       H    -6.92576    2.39630   17.59266
       O    -6.30379    2.73130   16.91717
      H1    -6.75878    2.48795   16.06229
       H    -4.39658    1.98806   13.05040
       O    -5.09294    2.26103   12.52817
      H1    -5.89633    2.04457   13.08540
       H     2.52529    8.86246   12.79003
       O     2.21464    9.75643   13.15562
      H1     2.92479   10.44117   13.12795
       H     0.37589    4.45406   11.11205
       O     0.73500    3.87249   11.85306
      H1     0.85659    3.00389   11.40343
       H    -4.88886    8.80837   16.40285
       O    -4.48242    7.95022   16.26046
      H1    -3.55949    8.02450   15.87803
       H    -3.90206    7.89667   17.77651
       O    -3.52394    7.72778   18.65374
      H1    -4.32455    7.71879   19.18945

