105
frame 1 | Written by MDAnalysis XYZWriter (release 2.4.3)
       H     5.42979   17.67278  -13.33554
       O     4.62944   18.24172  -13.32362
      H1     4.15545   18.24027  -12.52465
       H     3.95783   13.83248  -19.95153
       O     3.21434   13.24453  -19.76485
      H1     2.84272   13.60947  -18.95460
       H     7.43783   16.21145  -13.14440
       O     6.55042   16.18160  -12.72582
      H1     6.60273   16.11990  -11.75532
       H     4.35575   16.66243  -14.97560
       O     3.89225   16.54308  -15.85384
      H1     3.29726   17.32574  -15.99264
       H     4.80842   11.85971  -11.28129
       O     4.77756   10.92918  -11.55301
      H1     3.83780   10.73889  -11.45630
       H     0.04875   15.67708  -12.51798
       O     0.66962   15.86977  -13.21095
      H1     1.30238   15.18304  -13.14203
       H     5.27086   13.81023  -15.45650
       O     6.24206   13.87696  -15.52755
      H1     6.60609   13.02151  -15.25550
       H    -0.35791   12.06515  -14.21449
       O    -0.10824   12.87721  -13.75652
      H1    -0.12218   13.51995  -14.42086
       H    -0.94583    7.65428  -17.92272
       O    -0.79095    8.00615  -17.03855
      H1    -0.95899    8.97256  -17.05724
       H     1.86199    9.43803  -18.50739
       O     1.55757   10.13837  -19.11971
      H1     2.02778    9.89656  -19.94427
       H    -0.31706   10.59635  -15.60161
       O    -0.82096   10.43892  -14.83108
      H1    -1.69970   10.43519  -15.21121
       H     4.06162    7.87898  -11.58489
       O     4.97947    7.91115  -11.25863
      H1     5.12857    8.77865  -11.05380
       H     7.78270    9.91742  -16.95700
       O     8.67629   10.25980  -16.74516
      H1     8.89479   10.74014  -17.55928
       H     6.10534    8.32605  -14.38791
       O     6.67442    7.93127  -15.09528
      H1     6.57221    8.59361  -15.82483
       H     7.51302   14.89493  -16.08184
       O     8.36884   15.10003  -16.48042
      H1     8.38571   16.03419  -16.83665
       H     1.67644   13.57908  -16.79472
       O     2.08835   14.23969  -17.35338
      H1     2.37753   14.92904  -16.78076
       H     1.09057   17.79117  -13.30675
       O     1.53536   18.55687  -13.56020
      H1     1.95030   18.53731  -14.42903
       H     5.48453    7.03175  -16.76909
       O     4.60924    6.62741  -16.86718
      H1     4.04718    7.38465  -16.66946
       H     0.16719   11.70309  -11.23454
       O    -0.76613   11.54022  -11.49396
      H1    -0.87083   12.19605  -12.23777
       H     6.11864   13.19785  -17.35670
       O     6.29823   12.54968  -18.06524
      H1     7.22253   12.29507  -17.93331
       H     9.40386   13.58547  -18.98080
       O     9.18007   13.11567  -18.18431
      H1     8.70704   13.93648  -17.79583
       H    -1.57332   13.03252  -18.18889
       O    -1.53222   12.89865  -17.22630
      H1    -1.81021   13.74824  -16.78399
       H     1.24692   10.41964   -9.96801
       O     1.84964   11.00619  -10.43892
      H1     1.92295   11.79837   -9.93596
       H     8.24946   12.85057   -9.64861
       O     7.41607   12.38191   -9.93261
      H1     6.91107   13.00070  -10.48079
       H     1.37575    8.52870  -16.69174
       O     2.29448    8.71801  -16.92909
      H1     2.70504    9.22016  -16.17861
       H     4.13803    9.92123  -14.63303
       O     3.23043   10.13169  -14.96127
      H1     2.62922   10.01267  -14.21421
       H     3.28557   12.93559  -16.44253
       O     3.62102   12.83322  -15.55992
      H1     3.53907   11.87590  -15.34600
       H    -2.62456   15.29848  -15.98058
       O    -1.81969   15.08292  -15.51420
      H1    -2.11306   15.17553  -14.62389
       H     5.36550   10.50321  -17.43105
       O     5.83202    9.68051  -17.39594
      H1     6.16003    9.62890  -18.31489
       H     6.01505   14.05798  -12.10583
       O     5.57803   13.81149  -11.28009
      H1     4.82701   14.40719  -11.15312
       H     2.67060   13.73762  -13.84690
       O     2.38876   13.73771  -12.88489
      H1     1.50846   13.27407  -12.89422
       H     6.49762   10.45121  -14.02889
       O     5.65493   10.02232  -13.86704
      H1     5.29281   10.48839  -13.06197
       H     0.02271   12.23126  -16.95381
       O     0.80285   11.65270  -16.94288
      H1     0.85103   11.26466  -17.87055
       H     1.92452   10.08338  -11.84744
       O     2.19502    9.45420  -12.54825
      H1     1.49361    8.71551  -12.57021
       H     8.26090   12.07345  -13.99858
       O     7.62274   11.80606  -14.69844
      H1     8.18447   11.46900  -15.38736

