105
frame 2 | Written by MDAnalysis XYZWriter (release 2.4.3)
       H     9.21222    6.19370   12.20835
       O     8.82880    6.58450   11.40750
      H1     8.39477    7.41674   11.63620
       H     4.17850   12.41199   18.61441
       O     4.26935   11.48286   18.38934
      H1     5.18188   11.17667   18.57053
       H     6.54494   12.44051   15.34472
       O     7.19328   12.70750   16.00317
      H1     7.72704   11.93665   16.17037
       H    10.38635    6.35434   17.21737
       O     9.99078    7.17765   17.35469
      H1    10.57690    7.82919   16.99883
       H    10.80545    5.34343   13.77897
       O    10.51504    6.25446   13.90397
      H1     9.70961    6.09466   14.43966
       H     5.83413    4.85434   17.75995
       O     5.95398    5.71536   18.23067
      H1     5.34444    6.24055   17.67995
       H    11.46360   13.13438   15.77586
       O    11.07818   12.49027   16.48050
      H1    10.97819   13.01275   17.31176
       H     4.44435   13.25363   13.49292
       O     5.27921   12.69921   13.50999
      H1     5.61298   12.81411   12.58372
       H     9.62951   11.35399   16.82453
       O     8.85429   10.85946   17.10475
      H1     8.88661   10.08016   16.50550
       H    10.77760    9.64834   13.89184
       O    11.18855    9.89233   13.06108
      H1    10.88065    9.25135   12.39777
       H     3.30856    6.55324   16.55851
       O     4.14124    7.11558   16.58368
      H1     3.89255    8.03671   16.35798
       H    13.74019    6.61678   14.82277
       O    13.23776    6.45219   14.01668
      H1    12.31631    6.27475   14.20804
       H    13.98862   10.23967   11.09009
       O    13.68289   10.48958   11.99111
      H1    12.79370   10.04445   12.09692
       H     5.31425    3.43091   14.88012
       O     5.50709    2.46322   14.90302
      H1     5.12618    2.12131   15.73133
       H     9.91146    7.78883   15.03133
       O     9.60143    8.67014   15.03008
      H1     8.70691    8.58149   14.63825
       H     5.05554    6.20078   15.43375
       O     5.63272    5.76528   14.77812
      H1     5.19692    5.95693   13.96160
       H     9.67563   14.36311   14.79138
       O     9.02050   13.82226   14.32311
      H1     8.57591   13.47480   15.06562
       H     3.53832   10.35346   15.23123
       O     3.28365   10.05898   16.09364
      H1     4.03988   10.47453   16.50025
       H     8.86239    4.32112   14.45741
       O     8.58177    4.89113   15.23464
      H1     7.70376    5.22214   14.90649
       H    12.29762    7.87353   11.95008
       O    11.68952    7.91639   11.18879
      H1    11.05374    7.19338   11.25790
       H     7.36996   12.09545   10.22253
       O     8.12534   11.50929   10.12599
      H1     8.67064   11.83810   10.83468
       H     9.73753   12.82933   12.98087
       O     9.80583   12.26252   12.12929
      H1    10.42601   11.55731   12.36628
       H    11.05095    7.41976    9.05304
       O    11.28659    6.83935    8.32062
      H1    11.13053    5.93568    8.56193
       H     4.32338    5.53959   12.03390
       O     4.25702    6.41304   12.43439
      H1     3.29798    6.51980   12.66681
       H    13.49499    5.10418   12.88780
       O    13.68779    4.41256   12.26339
      H1    14.38009    3.91281   12.70342
       H     4.36048    8.04548   11.76383
       O     4.58737    8.64673   11.03629
      H1     5.59095    8.60806   10.97645
       H    11.14677   14.30030   10.05295
       O    11.29740   13.38470   10.17360
      H1    10.70416   13.09550   10.88332
       H    10.24594    3.14834   12.57060
       O     9.42627    3.56132   12.86451
      H1     8.88826    2.81216   12.81322
       H     7.42079    6.95559   18.60658
       O     7.95347    7.58427   19.12929
      H1     8.71966    7.67563   18.56758
       H     6.96684    9.29209   18.93598
       O     6.82648   10.20682   18.66498
      H1     7.61049   10.39139   18.06709
       H     7.01898    9.48020   12.30234
       O     7.60912    9.18215   11.56195
      H1     7.86590    9.96269   11.09412
       H     4.31506    9.81670   12.42101
       O     4.80600   10.01624   13.24292
      H1     4.85112   10.91803   13.36830
       H     6.55768    7.81942   15.15631
       O     6.97560    8.40233   14.49011
      H1     6.22527    8.98630   14.23275
       H    11.91033   10.78412   17.31816
       O    12.23981    9.88132   17.47169
      H1    12.84756    9.96894   18.16750
       H     6.96830    5.37076    9.38169
       O     7.04735    4.85970   10.19618
      H1     7.70725    5.41583   10.64764

