105
frame 6 | Written by MDAnalysis XYZWriter (release 2.4.3)
       H   -16.28728   -4.83127   -1.59739
       O   -16.95673   -4.11556   -1.72589
      H1   -17.29746   -4.28679   -2.56764
       H   -15.83075  -12.65863   -0.08655
       O   -16.26523  -12.74381   -0.92901
      H1   -16.77063  -13.52977   -0.78224
       H   -20.22060  -13.47985    0.22211
       O   -19.43733  -13.05395   -0.10622
      H1   -19.03518  -12.67283    0.67866
       H   -16.76768   -6.89845   -1.19030
       O   -15.83097   -6.63551   -1.26069
      H1   -15.61022   -6.87303   -2.21467
       H   -14.94047   -9.28427    0.96489
       O   -15.69498   -8.77464    0.72433
      H1   -15.37031   -8.22264   -0.08130
       H   -18.00588   -4.72900   -0.32459
       O   -18.52677   -5.10611    0.36167
      H1   -19.15103   -4.37504    0.55588
       H   -17.65586  -13.05315    2.79960
       O   -18.07995  -12.21960    2.39394
      H1   -17.50023  -11.43368    2.54676
       H   -14.81535   -4.96076   -4.39016
       O   -15.23217   -4.12049   -4.39237
      H1   -16.00933   -4.24591   -4.99769
       H   -13.36609   -2.94742   -1.52971
       O   -12.50346   -3.13348   -1.86329
      H1   -11.97368   -3.08991   -1.09167
       H   -18.42289   -8.44582   -1.16608
       O   -18.81544   -7.52756   -1.05742
      H1   -19.01097   -7.41756   -0.10675
       H   -14.51999   -3.96671    2.73767
       O   -15.22416   -3.75026    2.05782
      H1   -15.24281   -4.41664    1.33474
       H   -12.44921  -11.81468    4.14146
       O   -12.26659  -12.02697    3.23100
      H1   -11.39380  -12.50512    3.23661
       H   -14.98993  -13.94967    1.81514
       O   -14.42693  -13.21922    1.38155
      H1   -13.64089  -13.12479    1.92124
       H   -17.22262   -9.16645    3.53155
       O   -17.26449   -9.63378    2.69345
      H1   -16.56857   -9.26053    2.13092
       H   -15.27415   -9.57525   -3.98249
       O   -14.85984   -9.02009   -4.63648
      H1   -15.47175   -9.08807   -5.42722
       H   -12.37827   -4.68617    4.33957
       O   -13.26681   -4.37544    4.05242
      H1   -13.87537   -4.83191    4.67284
       H   -17.03293  -11.47183   -5.43091
       O   -16.90385  -11.23897   -4.51365
      H1   -17.70473  -10.70359   -4.38900
       H   -12.71472   -4.44138   -5.18709
       O   -12.46960   -4.61034   -4.27073
      H1   -12.79378   -3.89622   -3.68055
       H   -18.84773   -9.24491    1.89663
       O   -19.30764   -8.52584    1.47282
      H1   -19.81502   -8.88258    0.78664
       H   -11.11205   -6.27417    5.09613
       O   -11.76487   -6.97837    5.14572
      H1   -11.61857   -7.28133    4.24638
       H   -16.94271  -10.06228   -1.23421
       O   -17.57808   -9.74173   -1.87835
      H1   -18.30961  -10.37960   -1.91087
       H   -13.59848   -9.21259    2.82917
       O   -14.10130  -10.00262    2.74006
      H1   -13.39855  -10.64701    2.51736
       H   -13.47875  -10.29702   -4.83094
       O   -12.91517  -11.03090   -4.44024
      H1   -13.56766  -11.60920   -4.09003
       H   -11.35873   -3.68740    1.13859
       O   -11.26074   -2.78624    0.79808
      H1   -12.04720   -2.28807    1.07495
       H   -11.71267   -5.90873    0.64758
       O   -11.12990   -5.43073    1.26075
      H1   -10.30316   -5.26558    0.78865
       H   -17.53912   -4.96509    4.41694
       O   -17.58944   -4.05154    4.21755
      H1   -16.69191   -3.92581    3.82063
       H   -15.76122  -12.11524   -3.67606
       O   -14.94610  -12.69552   -3.49601
      H1   -15.06914  -12.91369   -2.56313
       H   -15.02885  -11.59642    4.14235
       O   -15.30747  -12.33441    4.68735
      H1   -15.63037  -11.95130    5.55064
       H   -10.94796   -8.78029    2.60379
       O   -11.67917   -8.19397    2.52349
      H1   -11.69840   -7.72497    1.66534
       H   -14.41002   -7.49854   -4.00648
       O   -14.24019   -6.57156   -3.61390
      H1   -13.31237   -6.20970   -3.70453
       H   -17.11550   -5.81680    1.62996
       O   -16.42752   -6.39704    1.88591
      H1   -16.55515   -7.27351    1.53846
       H   -15.96881   -6.33749    5.20122
       O   -16.74866   -6.59419    4.66484
      H1   -16.43777   -6.75706    3.75294
       H   -10.36390   -9.56255   -2.62114
       O   -10.98355  -10.08351   -2.09491
      H1   -11.80421  -10.13117   -2.63729
       H   -12.81384   -6.74331   -1.35529
       O   -12.27266   -7.13413   -0.67414
      H1   -11.65684   -7.72709   -1.12230
       H   -15.85741   -2.65488   -1.21955
       O   -15.07367   -2.30836   -0.83285
      H1   -15.00647   -1.40266   -1.12143

