105
frame 3 | Written by MDAnalysis XYZWriter (release 2.4.3)
       H     6.37222   -8.15130  -12.73444
       O     5.93580   -8.96539  -12.50018
      H1     6.67421   -9.53798  -12.18139
       H     6.60250   -5.80947  -13.63926
       O     6.59664   -6.24503  -12.76584
      H1     7.42351   -5.98043  -12.37018
       H     5.47103   -5.20930  -15.29492
       O     6.31556   -4.64046  -15.05051
      H1     5.83951   -3.87454  -14.67634
       H    10.28092   -7.43867  -16.25806
       O    10.39706   -7.60338  -17.19438
      H1    10.26905   -6.73581  -17.61315
       H     3.12329   -5.27668  -12.29445
       O     2.73842   -4.97563  -13.19133
      H1     1.76728   -5.07090  -13.26045
       H     7.38938    0.28323  -18.65805
       O     6.56215    0.43881  -19.14924
      H1     5.96202    0.68563  -18.45179
       H     2.44183   -4.92604  -19.35582
       O     2.44884   -5.78128  -18.87813
      H1     2.98269   -6.30499  -19.46753
       H     9.56379   -1.69075  -19.99302
       O    10.20129   -1.18513  -19.47693
      H1    10.72053   -1.83354  -18.98146
       H     9.85771   -0.14723  -17.78189
       O     9.45131    0.52083  -17.22156
      H1    10.00661    0.55245  -16.41142
       H     4.73998   -5.08618  -18.77755
       O     5.56356   -5.40511  -18.41681
      H1     6.22129   -4.70795  -18.35743
       H    10.43164   -4.44053  -15.49943
       O    11.27024   -4.87354  -15.38098
      H1    10.99672   -5.67488  -14.92181
       H     8.98216  -10.52554  -14.59492
       O     9.42029   -9.94918  -15.21693
      H1     9.00823   -9.98227  -16.10078
       H     2.42235  -11.19269  -17.63133
       O     2.08965  -10.64636  -16.90946
      H1     2.82007  -10.09562  -16.51865
       H    10.80507   -3.50906  -13.02933
       O     9.81977   -3.48140  -13.16597
      H1     9.45745   -2.55795  -13.05524
       H    12.52570   -5.62309  -18.66095
       O    13.45994   -5.82853  -18.56146
      H1    13.90742   -5.75025  -19.43975
       H     1.84881   -0.71372  -16.20007
       O     2.14485   -0.63975  -17.12003
      H1     2.73211    0.12437  -17.20229
       H     9.01261   -0.10532  -13.50798
       O     9.20183   -0.91398  -14.02951
      H1    10.15731   -0.81344  -14.20574
       H     4.81372   -2.16316  -13.42962
       O     5.76709   -2.13674  -13.53680
      H1     5.86567   -1.60387  -14.33333
       H     3.08366   -1.77724  -12.38986
       O     3.06191   -2.20342  -13.25997
      H1     3.00291   -3.16316  -13.16790
       H     2.44446   -9.05666  -18.89005
       O     1.99608   -9.23078  -19.73674
      H1     2.61111   -9.10538  -20.48397
       H     6.54597   -0.51218  -16.04227
       O     6.43904   -1.46161  -16.15525
      H1     7.38913   -1.70851  -16.25121
       H     5.53429   -8.55104  -17.00879
       O     5.94430   -8.24021  -17.87314
      H1     5.90546   -7.27521  -17.86642
       H     7.48101   -9.17123  -17.44705
       O     8.32086   -9.68678  -17.50998
      H1     9.00633   -9.01882  -17.62048
       H     8.90185   -2.45052  -15.26980
       O     8.76318   -3.23128  -15.86193
      H1     8.02281   -3.67748  -15.33844
       H     9.57006   -4.95198  -18.70730
       O    10.42306   -5.41946  -18.83772
      H1    10.15658   -5.91328  -19.61851
       H     4.47386   -8.30949  -15.33976
       O     4.38875   -9.15086  -15.80323
      H1     4.71879   -9.90490  -15.18405
       H     3.67537   -6.07281  -14.52559
       O     4.12451   -6.36286  -15.33425
      H1     3.54390   -6.06768  -16.05344
       H    11.29398   -7.58150  -13.83516
       O    10.47413   -7.60967  -14.40499
      H1    10.07465   -8.46975  -14.18614
       H     4.57588    0.78610  -16.02491
       O     4.89693    1.02576  -16.96774
      H1     5.20676    1.93085  -16.89235
       H    -0.41543   -7.32323  -18.99316
       O    -0.19062   -6.69861  -18.27177
      H1     0.76612   -6.66950  -18.34789
       H     2.60726   -3.57018  -16.48972
       O     1.80323   -4.02829  -16.22178
      H1     1.34005   -4.41501  -16.97510
       H     3.12228   -2.01389  -17.05789
       O     3.89048   -2.67502  -17.14211
      H1     4.52415   -2.37956  -16.46444
       H    11.29639   -4.03214  -18.39617
       O    11.51459   -3.15129  -18.03819
      H1    11.61423   -3.33294  -17.08399
       H    -0.00199   -5.88964  -14.00303
       O     0.26025   -4.97571  -14.04939
      H1     0.69803   -4.86216  -14.90523
       H     8.16817   -3.16539  -17.72818
       O     7.97645   -3.75255  -18.47501
      H1     7.91553   -3.23455  -19.29214

