105
frame 5 | Written by MDAnalysis XYZWriter (release 2.4.3)
       H    -0.58606   16.87479   -3.77055
       O    -1.03609   16.52197   -2.96776
      H1    -1.50982   17.25904   -2.53706
       H     1.78607   15.83209   -1.64028
       O     0.87192   15.62864   -1.38409
      H1     0.29900   15.79718   -2.11717
       H    -1.87399   12.85316    3.16990
       O    -1.99396   13.74134    2.83491
      H1    -2.81491   13.75671    2.33586
       H     3.62544   18.41648   -4.60195
       O     3.18833   18.68738   -3.77534
      H1     2.52729   19.35949   -3.99138
       H     2.13520   19.44095   -0.10907
       O     2.12122   19.23467    0.85766
      H1     1.29512   18.76475    1.05154
       H    -4.75363   18.46550    5.01937
       O    -5.62811   18.10031    4.80340
      H1    -5.54569   17.70456    3.92454
       H     0.45981   17.13585   -6.08121
       O     0.74049   17.19916   -5.15759
      H1     1.31118   17.98646   -5.03721
       H     1.37943   12.80584   -0.66075
       O     2.04459   12.15693   -0.94507
      H1     2.73345   12.75268   -1.21963
       H     3.45789   20.10499    4.51851
       O     3.53588   19.10447    4.65938
      H1     3.52501   18.65365    3.78218
       H    -2.51113   16.36984    8.56986
       O    -1.58013   16.53399    8.18814
      H1    -1.49010   15.81357    7.51729
       H     3.60029   18.43674    6.57545
       O     3.36562   18.28204    7.45116
      H1     2.42606   18.60859    7.48866
       H     3.23841   16.99925   -3.39065
       O     3.29072   16.03726   -3.20091
      H1     4.14846   15.93577   -2.73530
       H     0.92436   18.45021    4.41313
       O     0.79278   17.48064    4.57318
      H1     1.23924   17.29720    5.40987
       H     4.70070   14.65260    1.81793
       O     4.79130   15.41111    1.22730
      H1     4.56209   16.18878    1.76286
       H    -7.08543   16.50028   -2.16629
       O    -6.48798   16.45551   -1.36921
      H1    -6.08547   15.52366   -1.45069
       H    -3.64127   16.54850   -4.92944
       O    -4.43060   17.07784   -5.03919
      H1    -4.49946   17.53680   -4.18488
       H    -0.41083   14.70375    2.43198
       O     0.39660   15.25559    2.52738
      H1     0.23118   15.91562    3.20328
       H    -0.04387   13.47029    0.93284
       O    -0.18242   13.55423   -0.02918
      H1     0.12980   14.46846   -0.19548
       H     5.85400   17.95870   -1.91746
       O     5.21426   18.71437   -1.75941
      H1     4.75510   18.92338   -2.58640
       H    -5.28591   14.16652    1.93446
       O    -4.58557   14.59953    1.43572
      H1    -4.79562   15.54270    1.28538
       H    -1.00409   18.39825    1.41751
       O    -0.34945   17.98315    0.81563
      H1    -0.19793   17.07829    1.07885
       H    -1.29835   14.81197    5.42256
       O    -0.68218   14.63690    6.17957
      H1     0.03812   14.11621    5.77153
       H    -3.16482   11.95457    0.91492
       O    -2.89611   12.25570    0.04263
      H1    -2.46750   13.07229    0.26571
       H    -2.05337   18.02797   -0.32758
       O    -2.66282   18.65993   -0.74165
      H1    -3.39551   18.89263   -0.11187
       H    -4.84481   13.69783   -2.36301
       O    -5.09405   13.96496   -1.45736
      H1    -4.43833   14.12983   -0.75452
       H     0.77535   18.39786    8.86895
       O     0.86814   19.15445    8.27623
      H1     0.30975   18.98204    7.47021
       H    -6.51800   17.07328    1.95956
       O    -5.50642   17.26532    2.14289
      H1    -5.33902   18.04393    1.63961
       H     5.26796   17.82201    1.95200
       O     4.30820   17.89381    2.19585
      H1     3.84385   18.40891    1.54128
       H    -4.07261   18.60199   -2.07418
       O    -4.76136   18.33894   -2.71768
      H1    -5.45056   18.00204   -2.15059
       H    -7.60238   17.15289    0.01563
       O    -8.03553   17.22403    0.86936
      H1    -8.31483   18.14331    0.98986
       H     0.96005   12.52225    3.62931
       O     1.70364   12.98598    3.23549
      H1     1.40565   13.87352    3.00334
       H    -0.73514   18.11195    5.81785
       O    -1.16632   18.59879    6.48478
      H1    -1.43263   17.82375    7.03291
       H    -3.35373   14.16875   -4.64637
       O    -2.77901   14.94205   -4.95744
      H1    -2.08271   14.99962   -4.25201
       H     4.12517   14.18282   -0.21211
       O     4.08185   13.89624   -1.13887
      H1     4.59649   13.08416   -1.26227
       H    -4.08032   15.71470    5.39491
       O    -3.34840   15.07381    5.24198
      H1    -3.18321   15.11707    4.32985

