105
frame 4 | Written by MDAnalysis XYZWriter (release 2.4.3)
       H    -6.62726    5.15250   -7.16687
       O    -6.52208    4.27351   -6.74572
      H1    -7.08877    4.25891   -6.01578
       H   -11.01866    9.62930  -12.73203
       O   -10.76480    8.80367  -13.21251
      H1   -11.49347    8.17544  -13.33508
       H    -5.64779   10.94858  -12.25691
       O    -5.96901   11.82565  -12.26990
      H1    -6.68228   11.80635  -11.59894
       H    -6.70195    6.58784   -8.41444
       O    -7.03016    6.88203   -7.55761
      H1    -8.00519    6.93778   -7.66550
       H    -9.44038    5.25232   -7.83487
       O    -9.62846    5.58163   -8.72625
      H1    -9.49516    4.83421   -9.33395
       H    -9.60977    4.21933   -5.59765
       O    -9.28992    5.06452   -5.94769
      H1    -9.66617    5.75188   -5.33778
       H    -5.73951    9.60819   -7.36665
       O    -6.33297    9.34480   -6.65550
      H1    -6.58464    8.45464   -6.97665
       H    -7.87330    9.84665   -8.22106
       O    -8.44894    9.49633   -8.91499
      H1    -9.13340    9.11796   -8.36181
       H    -4.23338    7.23852   -5.95146
       O    -3.91825    8.13464   -6.16382
      H1    -4.70472    8.62064   -6.40743
       H    -3.40871    7.90627  -10.73992
       O    -3.96813    7.12030  -10.81681
      H1    -4.30224    7.18701  -11.73718
       H    -6.21417    6.03578  -15.50967
       O    -5.90813    5.71895  -14.63583
      H1    -5.08752    5.24464  -14.72395
       H   -10.88919    5.90116  -11.73987
       O   -10.16028    6.21236  -12.28311
      H1    -9.59055    6.62071  -11.63808
       H   -11.60698    4.46251  -10.42710
       O   -11.99419    3.80788  -10.99220
      H1   -12.77543    4.19493  -11.36147
       H    -7.72510    2.61215   -9.15657
       O    -6.94125    2.36059   -8.63851
      H1    -6.92484    3.06637   -8.00928
       H    -3.82084    9.74904   -9.13797
       O    -4.60215   10.24503   -8.80459
      H1    -4.23486   11.12871   -8.58590
       H    -8.00496    9.08201  -12.22028
       O    -8.16510    9.45365  -13.14565
      H1    -9.10911    9.44988  -13.11028
       H   -10.85032    3.02042  -12.20591
       O   -10.08147    2.54690  -12.62033
      H1    -9.55088    3.17958  -13.13501
       H    -4.73075    9.28965  -14.25358
       O    -4.52509   10.22713  -14.32215
      H1    -5.25475   10.65164  -14.81560
       H    -9.45484    2.73036  -11.10749
       O    -9.25018    2.86656  -10.14078
      H1    -9.83365    2.16358   -9.71402
       H   -12.07113    7.47417  -10.22299
       O   -11.77306    6.58791  -10.02225
      H1   -11.00063    6.68970   -9.48113
       H    -5.29175    5.09268   -5.85323
       O    -4.66567    5.57493   -5.34084
      H1    -3.88745    4.95012   -5.24668
       H    -1.72601    8.94623   -9.55482
       O    -2.53367    9.20956   -9.98447
      H1    -2.25115    9.87858  -10.64082
       H    -3.66557    3.69940  -11.66748
       O    -3.14097    4.42122  -11.45530
      H1    -3.64717    5.14728  -11.04991
       H    -4.52134    0.91364  -10.47066
       O    -4.40711    1.73813  -11.07593
      H1    -5.24749    1.95620  -11.44576
       H    -8.65004    8.26328  -14.28628
       O    -8.66749    7.76664  -15.15364
      H1    -9.56894    7.29320  -15.13136
       H    -5.88942    5.73070  -10.85117
       O    -6.24991    5.43714  -10.00059
      H1    -5.88563    4.62641   -9.68722
       H   -11.37048    8.16481   -7.41004
       O   -10.40270    8.26944   -7.23133
      H1   -10.35865    8.10715   -6.29938
       H    -7.34577    6.73435  -10.79580
       O    -7.76866    7.51600  -11.07565
      H1    -8.05107    7.89560  -10.16547
       H    -3.41881    7.34612  -13.46464
       O    -4.35665    7.48926  -13.42391
      H1    -4.99483    6.89232  -13.86604
       H   -12.79466    5.94498  -14.03146
       O   -12.05877    6.36571  -14.47898
      H1   -11.28060    6.09808  -14.00457
       H    -3.37883    3.88204   -8.53043
       O    -4.11700    3.25146   -8.62333
      H1    -4.23717    3.03491   -9.54481
       H    -7.92915   11.79409  -14.75472
       O    -8.77668   11.81164  -14.35528
      H1    -8.63006   11.31018  -13.53222
       H    -7.73085    2.69879  -11.14284
       O    -7.02098    2.58557  -11.76721
      H1    -7.24081    3.09898  -12.57318
       H    -7.40326    3.65214  -14.78469
       O    -7.93213    3.84681  -13.99340
      H1    -7.80055    4.79134  -13.91771
       H    -8.02958   12.40525  -10.16277
       O    -8.49349   11.74817  -10.68703
      H1    -8.50972   11.02404  -10.09414

