105
frame 8 | Written by MDAnalysis XYZWriter (release 2.4.3)
       H     7.74155   -8.36354  -12.41110
       O     7.31310   -9.17662  -12.09085
      H1     7.84362   -9.91408  -12.35676
       H     7.01151   -6.23868  -12.90190
       O     7.84954   -6.65277  -12.63998
      H1     8.04771   -6.44413  -11.75288
       H     7.13638   -9.09886  -10.33655
       O     6.73387   -9.05260   -9.42854
      H1     7.40550   -8.64341   -8.91677
       H    -1.62099  -10.27596  -13.55125
       O    -1.07764   -9.50113  -13.35092
      H1    -1.07014   -9.07583  -14.23497
       H     5.78349  -13.58951  -12.89172
       O     4.85259  -13.43039  -13.04591
      H1     4.80504  -12.51588  -13.37686
       H     3.82957  -11.26719  -15.27130
       O     3.68274  -11.42419  -16.19645
      H1     2.77468  -11.79759  -16.25156
       H     2.88362   -9.86229   -9.33943
       O     2.65762   -9.00623   -9.71868
      H1     3.37729   -8.45689   -9.34885
       H     5.08950   -5.31752  -16.56534
       O     5.73000   -5.72294  -15.87222
      H1     6.59734   -5.57111  -16.26163
       H    10.06681  -10.01455  -14.38548
       O    10.24608   -9.49267  -15.20141
      H1     9.76141   -8.66250  -15.12115
       H     5.06089  -13.89042   -8.70070
       O     5.41379  -13.73635   -7.78783
      H1     4.67028  -13.70753   -7.16806
       H     2.74736   -9.38766  -16.01359
       O     3.03896   -8.47051  -15.99370
      H1     3.97061   -8.47927  -15.63541
       H     3.03038  -11.67409   -7.60954
       O     2.86997  -11.53002   -8.56339
      H1     1.99889  -11.85396   -8.71939
       H     0.84257  -13.61298  -16.41030
       O     0.82123  -12.67722  -16.29719
      H1    -0.03742  -12.31492  -16.55874
       H     2.16889   -8.41412   -7.87498
       O     1.83105   -8.05117   -6.99618
      H1     1.42240   -8.74603   -6.45221
       H    -0.55540   -6.26493  -12.13108
       O     0.40572   -6.14188  -12.22822
      H1     0.56650   -6.69775  -12.99214
       H     0.74643  -11.56053  -10.44041
       O     0.35173  -11.99209   -9.72287
      H1    -0.13843  -11.28231   -9.28727
       H     4.05810  -15.11752  -15.73321
       O     3.57975  -15.18259  -14.85349
      H1     4.09212  -14.59988  -14.22947
       H     5.81699   -8.59911  -14.05636
       O     5.98427   -8.22492  -14.90084
      H1     6.06159   -7.28234  -14.84047
       H     4.01427   -7.92365  -17.42228
       O     4.51982   -7.68332  -18.18879
      H1     5.38301   -7.94070  -17.92353
       H     4.50936  -12.62653  -18.68684
       O     5.31074  -12.78688  -18.13150
      H1     4.97125  -12.36923  -17.33725
       H     5.34557  -16.64908   -9.90454
       O     6.02080  -16.06417  -10.27952
      H1     5.72272  -15.17903  -10.25862
       H     4.54452  -10.23223  -12.88239
       O     4.13169  -10.84265  -13.54217
      H1     3.18007  -10.95107  -13.22239
       H     6.76753   -8.72973  -16.70863
       O     7.18562   -8.77917  -17.60052
      H1     8.09842   -8.62396  -17.43063
       H     6.16850  -12.14427   -8.07972
       O     6.96518  -11.47182   -8.00011
      H1     6.76860  -10.82895   -8.70142
       H     3.65282   -8.49417  -11.48736
       O     4.39079   -8.53526  -12.18601
      H1     5.15198   -8.08958  -11.74024
       H     4.81256   -5.84316  -12.83005
       O     5.38238   -5.18718  -13.23986
      H1     5.46585   -5.26524  -14.18578
       H    10.13883   -6.91018  -14.80625
       O     9.20608   -6.82917  -15.04566
      H1     8.77686   -6.74492  -14.15151
       H     2.49015  -14.35466   -9.85248
       O     1.84668  -14.95645   -9.45070
      H1     0.98983  -14.81553   -9.90987
       H     4.07446  -12.63413   -9.80422
       O     4.23409  -13.43083  -10.30473
      H1     4.25450  -13.32130  -11.28907
       H     7.66465  -14.07259  -14.01993
       O     7.82185  -13.66691  -13.13662
      H1     8.05913  -14.36371  -12.49138
       H     1.61809   -7.67420  -15.49098
       O     0.88845   -7.25777  -15.01134
      H1     0.88340   -6.30312  -15.27565
       H     0.31941  -12.98401  -14.51101
       O     0.31146  -13.15963  -13.56172
      H1    -0.60583  -12.84092  -13.37521
       H    10.30285  -11.49484  -12.47155
       O     9.50578  -11.33052  -12.99953
      H1     9.06199  -12.20047  -13.10047
       H     4.62415   -6.73512   -8.83160
       O     4.77290   -7.42843   -9.47521
      H1     5.50387   -8.03181   -9.35267
       H     0.87416  -11.63021  -12.85964
       O     1.17390  -10.84430  -12.30576
      H1     0.67017  -10.04950  -12.61836

