105
frame 7 | Written by MDAnalysis XYZWriter (release 2.4.3)
       H     3.62646   -5.37751   -6.33359
       O     3.23838   -4.47882   -6.41579
      H1     3.22577   -4.45430   -7.37656
       H     1.10588  -12.02368   -6.24648
       O     0.69712  -12.71771   -6.74503
      H1    -0.19507  -12.78804   -6.38369
       H    -0.18350   -8.68974   -2.42280
       O     0.49680   -9.12718   -2.92981
      H1     0.24647   -9.16442   -3.81231
       H    -1.79674   -2.39698   -5.78103
       O    -2.45994   -2.11342   -5.16502
      H1    -1.97455   -1.93910   -4.34727
       H     1.21038   -7.41711   -3.48364
       O     1.21970   -6.51807   -3.83080
      H1     1.94400   -6.57743   -4.41400
       H    -2.23914   -5.50128   -5.73574
       O    -2.81216   -5.45376   -6.47965
      H1    -2.45338   -4.66861   -6.88764
       H    -1.18059  -11.31973  -12.06586
       O    -0.47911  -10.66938  -11.98469
      H1    -0.35570  -10.28334  -12.85510
       H     3.56892   -4.82522  -10.93477
       O     3.07028   -5.22506  -11.69614
      H1     2.28615   -5.60182  -11.18664
       H     2.76967  -10.88719   -4.83014
       O     1.78578  -10.88282   -5.00454
      H1     1.37734  -11.46118   -4.36312
       H     0.04892   -5.51427   -6.14110
       O    -0.13238   -4.81594   -5.48707
      H1     0.51512   -4.91443   -4.80064
       H     0.27173   -4.68458  -10.48051
       O    -0.13838   -3.85695  -10.61859
      H1    -0.76040   -3.69156   -9.86617
       H    -0.76386   -6.33522  -10.14047
       O    -1.63388   -6.73131   -9.89017
      H1    -2.30627   -6.04260  -10.11521
       H     0.24933   -3.11564   -6.04601
       O     0.12792   -2.13138   -6.23365
      H1     0.85495   -1.91354   -6.88925
       H     2.58533   -9.85028   -9.38249
       O     2.46860   -8.94678   -9.68156
      H1     3.27682   -8.47225   -9.39640
       H     0.92536   -6.97132  -10.94675
       O     0.95471   -6.22917  -10.33240
      H1     1.27201   -6.53962   -9.50034
       H     1.96931   -4.41348   -1.38815
       O     1.94694   -5.37584   -1.46243
      H1     1.50998   -5.61914   -2.28645
       H     4.76086   -3.25499   -9.66582
       O     3.87003   -3.62894   -9.51536
      H1     3.26511   -2.93371   -9.20683
       H     2.78609   -2.68046   -4.05161
       O     1.91206   -2.44034   -3.82750
      H1     1.54277   -2.16358   -4.67412
       H    -1.01767   -2.82786   -8.08227
       O    -1.69207   -3.33245   -8.51262
      H1    -2.52049   -2.80274   -8.30360
       H     3.24443  -11.52566   -7.97415
       O     3.02276  -11.36555   -8.92687
      H1     2.16249  -11.80216   -9.02795
       H     4.33402   -8.08960   -5.56998
       O     3.56817   -7.44567   -5.58015
      H1     2.96458   -7.86358   -6.24378
       H     2.01866   -9.23183   -7.79984
       O     1.64964   -8.88362   -7.00952
      H1     1.53077   -9.63433   -6.45728
       H     0.07721   -7.04977  -13.29502
       O     0.86567   -6.47963  -13.21869
      H1     1.51901   -6.90205  -13.81109
       H     0.54733  -11.69110  -10.35689
       O     0.69367  -12.44721   -9.75858
      H1     0.19762  -12.27549   -8.89165
       H    -5.18737   -6.92920   -9.23359
       O    -5.71408   -7.61262   -8.88804
      H1    -5.43279   -7.84758   -8.00470
       H    -3.44769  -11.41126   -8.43782
       O    -4.07544  -12.04267   -8.79950
      H1    -4.91887  -11.58716   -8.64193
       H    -2.06315   -9.89619   -8.62197
       O    -1.60219  -10.54615   -8.13605
      H1    -1.80656  -10.28921   -7.17180
       H     3.96178   -6.08631   -3.25273
       O     4.79570   -5.57968   -3.29580
      H1     5.29666   -5.89036   -4.05599
       H    -4.58788   -7.99364   -6.06798
       O    -3.74385   -8.06492   -6.51402
      H1    -3.43605   -7.09831   -6.51928
       H     0.53515   -7.45892   -7.44483
       O     0.17612   -6.58932   -7.61244
      H1    -0.58835   -6.60870   -8.13634
       H    -2.79093   -8.11514   -9.96863
       O    -3.40952   -8.86884   -9.83186
      H1    -4.24922   -8.48189   -9.55133
       H    -2.07452   -7.39716  -12.23600
       O    -1.76250   -7.33126  -13.14627
      H1    -1.61834   -8.22493  -13.49189
       H     6.38029   -9.81032   -6.42192
       O     5.69253   -9.69966   -5.76448
      H1     6.19950   -9.41806   -5.02471
       H     4.85529   -6.57108   -8.93820
       O     4.67756   -7.43092   -9.37193
      H1     5.59644   -7.77574   -9.49221
       H    -1.86276   -9.82311   -4.37418
       O    -1.47398   -9.46066   -5.20426
      H1    -2.27939   -9.08389   -5.62713

