105
frame 6 | Written by MDAnalysis XYZWriter (release 2.4.3)
       H    17.95361   15.23725    2.17351
       O    17.41682   15.62868    1.51463
      H1    16.96350   14.93601    0.99270
       H     9.83925   16.51485    1.94217
       O     9.61575   17.15331    2.64426
      H1     8.79271   16.86283    3.06624
       H    17.06875   15.04224   -4.42627
       O    16.30429   15.56046   -4.69255
      H1    15.86617   14.92717   -5.26179
       H    14.36139   16.38394    2.69728
       O    14.66118   15.52695    2.31398
      H1    15.61831   15.58748    2.37019
       H    13.38536   12.81420   -4.69587
       O    13.72251   13.72754   -4.70526
      H1    12.91484   14.10579   -4.29082
       H    15.79634   13.11879    1.53350
       O    16.25199   13.29012    0.69144
      H1    15.49439   13.13498    0.04335
       H    14.08729   18.41109   -0.38390
       O    14.84902   18.62882   -0.95856
      H1    14.86288   18.02049   -1.64083
       H    10.16709   10.73448   -3.15863
       O     9.42914   10.29728   -3.73403
      H1     9.11605   11.06644   -4.20334
       H    13.27994   18.10927    4.12879
       O    14.17198   18.06423    3.65199
      H1    14.74653   18.73615    4.10508
       H     7.10315   18.05759   -3.73998
       O     7.11858   17.21209   -3.40495
      H1     7.19424   17.39068   -2.45380
       H    11.60065   18.38611   -2.38380
       O    11.99227   19.19812   -2.76510
      H1    12.86193   19.19698   -2.35440
       H    11.18611   11.16965   -1.06763
       O    11.46035   10.95380   -1.97555
      H1    11.50996    9.95825   -2.02214
       H     6.52202   15.83016    0.61086
       O     6.92989   15.46909   -0.19303
      H1     7.89321   15.54497   -0.10148
       H    13.27709   15.81650    0.83087
       O    12.34731   16.11597    0.64979
      H1    12.30226   17.06425    0.74496
       H    10.62540   14.51371    5.15974
       O    11.01598   13.66711    4.90209
      H1    11.72756   14.03529    4.33245
       H    12.26430   15.13938   -0.92557
       O    12.36699   14.34713   -1.49508
      H1    11.63124   14.45935   -2.07945
       H    18.20397   13.28590   -1.93923
       O    17.95999   12.52995   -1.44212
      H1    17.45624   12.65427   -0.61647
       H     6.65055   13.99544   -3.81371
       O     7.40778   14.54758   -3.83093
      H1     7.22702   15.46433   -3.76237
       H    10.28884   16.18446   -2.34766
       O    10.38986   17.08249   -2.02783
      H1     9.55937   17.16533   -1.50643
       H    10.46183   15.20294   -4.11378
       O    10.20846   14.64344   -3.35244
      H1     9.20498   14.68082   -3.21886
       H     8.52487   10.76682   -2.24766
       O     8.31492   11.29069   -1.41690
      H1     8.71815   10.80145   -0.71456
       H    11.71106   19.18924    1.08536
       O    12.56049   18.76029    0.90119
      H1    13.11450   18.91095    1.60807
       H    11.49022   18.14368    5.14842
       O    11.33724   18.57239    4.31618
      H1    10.85593   17.92951    3.76516
       H    12.62199   10.92366   -5.83878
       O    12.72242   11.08370   -4.92738
      H1    11.98016   10.78898   -4.43797
       H    10.21207   15.92505   -6.06655
       O    10.69137   16.32463   -5.32810
      H1    10.19016   17.14936   -5.13927
       H     7.30798   18.54760   -0.22970
       O     7.71934   18.50719   -1.10190
      H1     7.77200   19.47445   -1.22753
       H    11.53850   12.62858    1.15236
       O    11.02410   12.28772    0.42598
      H1    11.37325   12.86421   -0.27830
       H    13.32804   10.49511   -2.62956
       O    14.26706   10.24031   -2.50523
      H1    14.14938    9.52202   -1.81758
       H     7.67029   12.76912    1.69671
       O     6.87097   12.84020    1.14871
      H1     7.00911   13.64614    0.55811
       H    13.63482   12.93869   -1.47036
       O    14.21957   12.32685   -0.97328
      H1    14.37424   11.48092   -1.52382
       H    10.78296   15.24943    0.73764
       O     9.86258   14.97738    0.88808
      H1     9.80751   14.15920    1.41746
       H    13.41809   13.86203    2.64654
       O    12.89264   13.10296    2.34014
      H1    13.21823   12.30206    2.78676
       H    15.22508   18.40747   -4.11746
       O    15.85523   18.01029   -3.50704
      H1    15.90337   17.11020   -3.88535
       H    10.12664   13.09284    3.13252
       O     9.48763   12.65436    2.57638
      H1     9.95395   12.26582    1.75941
       H    13.27596   15.39037   -7.06521
       O    13.13566   16.30592   -6.76077
      H1    12.47750   16.22787   -6.05190

