105
frame 0 | Written by MDAnalysis XYZWriter (release 2.4.3)
       H   -10.78352  -16.02988   -7.10330
       O   -10.37781  -15.70651   -7.90041
      H1   -10.03279  -16.51610   -8.32587
       H    -1.44407  -15.59197   -9.50814
       O    -2.12712  -15.36748   -8.83713
      H1    -2.56701  -14.64273   -9.31407
       H    -6.50927  -15.78272  -14.67490
       O    -6.79365  -16.66239  -14.38597
      H1    -6.08154  -17.27288  -14.59698
       H    -6.21436  -11.36417  -11.60552
       O    -6.13655  -11.10326  -12.52338
      H1    -5.26809  -10.66824  -12.49483
       H   -10.29707  -14.82553  -12.53074
       O   -10.12171  -14.49789  -11.60649
      H1    -9.85828  -13.56558  -11.75780
       H   -12.70572  -11.35351  -13.17200
       O   -11.75836  -11.33279  -12.94533
      H1   -11.27648  -11.76631  -13.62665
       H    -6.72061  -17.34824  -11.15217
       O    -6.01362  -17.47616  -11.85194
      H1    -6.32221  -17.04566  -12.71024
       H    -4.64827  -14.66096  -12.35658
       O    -5.04551  -13.91138  -11.89514
      H1    -4.77432  -13.28495  -12.57837
       H    -9.80078  -10.46626   -9.68108
       O    -9.10853  -10.68112   -9.06155
      H1    -9.51107  -11.17330   -8.27638
       H    -9.87110  -14.09649   -7.46125
       O    -9.35316  -13.29489   -7.28289
      H1    -8.64563  -13.65924   -6.70568
       H    -8.33660  -18.08296   -5.49455
       O    -7.70287  -17.34415   -5.27395
      H1    -7.40269  -17.03925   -6.16995
       H    -9.08934  -12.58334  -14.48933
       O    -9.99248  -12.45181  -14.81109
      H1    -9.91149  -11.83048  -15.54537
       H    -6.71281  -14.96759   -7.00654
       O    -6.57008  -15.88196   -7.40108
      H1    -6.96605  -15.90638   -8.28490
       H    -2.91691  -15.84471  -12.83700
       O    -3.85014  -16.04378  -12.98839
      H1    -4.14528  -16.61592  -12.22577
       H    -9.29873   -8.33197   -7.66298
       O    -9.53492   -8.08612   -6.77282
      H1   -10.03832   -8.88960   -6.47799
       H    -4.16926   -7.60624  -10.79920
       O    -4.54713   -8.37137  -10.40180
      H1    -5.51260   -8.22264  -10.55661
       H   -10.20091  -18.10104   -9.91229
       O    -9.62382  -17.96580   -9.15412
      H1    -8.72731  -18.27913   -9.33748
       H    -6.88614  -13.57278  -14.79239
       O    -7.49040  -13.11574  -14.20429
      H1    -6.92765  -12.62584  -13.57768
       H    -7.37891   -9.44734  -11.88261
       O    -7.98030   -8.71404  -12.06353
      H1    -7.47074   -7.95154  -12.40702
       H    -7.88193   -8.02076  -10.42423
       O    -7.45833   -7.79679   -9.57027
      H1    -7.54046   -6.85433   -9.41398
       H    -6.26111  -12.97495   -6.21770
       O    -7.03893  -13.43598   -5.84689
      H1    -7.06494  -13.46302   -4.87299
       H    -4.19597  -13.43330  -10.41892
       O    -3.62515  -13.07050   -9.69917
      H1    -4.10376  -12.96618   -8.89361
       H    -8.88988  -12.35468   -5.51289
       O    -9.25189  -11.80184   -4.81527
      H1    -8.49381  -11.63607   -4.27129
       H    -5.90971   -7.12022   -8.14139
       O    -5.42472   -7.54736   -7.44604
      H1    -5.30475   -8.41682   -7.81789
       H   -11.74080  -11.88384  -11.29198
       O   -11.58319  -12.04929  -10.32017
      H1   -11.40373  -12.99179  -10.17499
       H    -4.34422  -11.68072   -6.84543
       O    -5.09064  -12.17429   -7.36693
      H1    -5.56372  -11.44694   -7.72576
       H    -3.44018   -9.87125  -10.87033
       O    -3.21403  -10.81450  -11.15523
      H1    -3.42092  -11.39983  -10.35466
       H    -6.85290  -15.15149  -10.59567
       O    -7.54712  -15.30476   -9.93449
      H1    -8.38281  -15.08252  -10.41519
       H   -12.71280  -11.69788   -8.85054
       O   -13.22835  -11.09167   -8.34161
      H1   -14.14856  -11.29090   -8.53597
       H    -7.43104   -9.10098   -7.15558
       O    -7.06069   -9.97233   -7.24330
      H1    -7.64375  -10.38534   -7.89406
       H    -3.51263  -16.64461   -8.49929
       O    -4.21321  -17.17653   -7.99313
      H1    -4.96007  -16.59018   -7.70052
       H   -10.53666  -10.71742   -5.65254
       O   -11.26641  -10.19747   -6.04393
      H1   -11.55494  -10.72827   -6.78626
       H    -7.32232  -13.01399   -9.83426
       O    -7.24414  -12.13615  -10.16105
      H1    -7.99556  -11.63186   -9.78944
       H   -11.95996  -14.99630   -8.40405
       O   -12.80221  -14.52483   -8.48239
      H1   -13.13548  -14.37562   -7.62076
       H   -10.88548   -9.92870  -13.46711
       O   -10.40507   -9.19082  -13.88144
      H1    -9.61824   -9.06891  -13.26755

