105
frame 1 | Written by MDAnalysis XYZWriter (release 2.4.3)
       H   -12.97995    7.57498   -5.56297
       O   -12.21220    7.88324   -5.13989
      H1   -12.38740    8.02146   -4.20261
       H    -8.56987    2.93001   -4.44473
       O    -7.87996    3.27852   -3.83067
      H1    -7.93505    2.60218   -3.10289
       H   -11.10377    5.49376   -5.65595
       O   -10.17271    5.57685   -5.84222
      H1    -9.91128    6.34483   -5.30867
       H   -14.23098    6.29587   -1.97940
       O   -14.25615    6.67992   -2.88509
      H1   -14.07357    7.61156   -2.63862
       H   -11.64795    9.32594   -2.57315
       O   -10.66886    9.30726   -2.62367
      H1   -10.36084    8.66637   -1.94520
       H   -13.76018    9.30493   -1.57160
       O   -13.48151    9.26201   -2.50099
      H1   -13.92244    9.97526   -3.01481
       H   -10.48648    6.40105    4.93345
       O    -9.63900    6.00883    5.19750
      H1    -9.57004    6.32861    6.10493
       H    -9.77466    3.65271   -5.90151
       O    -9.33015    2.81846   -6.04979
      H1   -10.00407    2.13341   -5.93890
       H    -5.79188    5.14144    2.00488
       O    -6.02125    5.08821    1.07729
      H1    -6.96041    4.95981    1.02948
       H   -11.42336    1.06781    2.65310
       O   -11.73926    1.71471    2.01300
      H1   -11.09533    1.68301    1.28050
       H    -7.48548    7.89164    1.88595
       O    -7.03935    7.99067    1.06877
      H1    -6.66334    7.08906    0.80345
       H   -14.93802   -0.00554   -0.12774
       O   -15.35168    0.51563    0.50603
      H1   -14.87549    0.07673    1.23171
       H   -16.17699    4.33056   -3.93048
       O   -16.38737    5.24976   -4.16268
      H1   -15.51581    5.61917   -4.14563
       H   -12.43023    7.51814    4.21126
       O   -12.24973    6.66011    4.60510
      H1   -13.01922    6.29052    4.94455
       H    -7.67959    2.89232    2.53092
       O    -7.35065    2.21806    1.94050
      H1    -6.40485    2.33007    1.90329
       H   -13.20844    2.59844    1.50355
       O   -14.07773    2.72276    1.07285
      H1   -14.28216    1.78380    0.88144
       H   -13.51711    8.39128    0.44945
       O   -14.15436    9.06004    0.12357
      H1   -15.03193    8.67915    0.07721
       H   -12.41462    8.11897    2.24903
       O   -12.51262    7.43341    1.61684
      H1   -11.70745    7.45460    0.99540
       H    -6.77443    0.93126   -1.76740
       O    -7.26314    1.77611   -1.67867
      H1    -7.43810    1.83736   -0.75953
       H   -10.46900    1.81412   -1.30202
       O   -11.23730    2.02584   -1.83706
      H1   -10.85845    2.49019   -2.55632
       H   -11.51566    5.44743    2.70392
       O   -11.00959    4.91209    2.07396
      H1   -11.24028    4.03224    2.40906
       H    -7.49704    5.83460   -2.13985
       O    -8.42623    5.69219   -2.25322
      H1    -8.41175    4.90364   -2.84341
       H   -17.17199    3.37847    2.72652
       O   -16.23653    3.22524    2.84755
      H1   -15.66227    3.30451    2.10073
       H   -11.50724    4.35031   -0.57574
       O   -11.32845    5.09737   -1.14756
      H1   -12.06893    5.35127   -1.62927
       H   -12.26904    2.02184   -5.16011
       O   -12.31119    2.84653   -4.69385
      H1   -12.77263    3.47156   -5.31070
       H   -14.11438    6.73635    2.37954
       O   -14.97653    6.33769    2.27937
      H1   -14.87815    6.06970    1.32642
       H   -15.17247    4.51254    5.53061
       O   -14.51665    4.23200    4.86346
      H1   -15.10229    4.23236    4.06075
       H    -9.00206    4.29915    4.25487
       O    -8.76747    3.43160    3.85936
      H1    -9.57539    2.93521    4.04559
       H   -12.39031    0.41184   -1.62295
       O   -12.99911   -0.30434   -1.59129
      H1   -12.40534   -1.11384   -1.49124
       H   -13.78705    2.68692   -3.81469
       O   -14.73787    2.76764   -3.73317
      H1   -15.00073    1.84393   -3.88594
       H   -10.49545    6.60499   -0.60639
       O   -10.37258    7.58342   -0.45963
      H1    -9.68986    7.52950    0.25394
       H    -8.66090    6.78155   -3.48795
       O    -8.72988    7.37980   -4.27535
      H1    -9.06285    8.24601   -3.97121
       H   -14.65761    4.47334   -0.09814
       O   -14.81831    5.28875   -0.59495
      H1   -15.69578    5.15072   -0.96146
       H    -9.51247    4.99537    1.07644
       O    -8.72368    5.32784    0.63140
      H1    -8.92309    5.39773   -0.28483
       H    -9.38392    0.07860    0.49760
       O    -9.51369    1.03969    0.45956
      H1    -8.74237    1.35206    1.01488

