105
frame 4 | Written by MDAnalysis XYZWriter (release 2.4.3)
       H     6.43184   -8.19608  -12.51589
       O     6.10103   -9.01277  -12.24093
      H1     6.90208   -9.47939  -11.91278
       H     3.53668  -17.02035   -9.98765
       O     2.94793  -17.78452   -9.86930
      H1     3.03429  -18.28416  -10.70444
       H     6.33011  -10.42300   -9.17424
       O     6.72220   -9.56028   -8.98931
      H1     6.23971   -8.81322   -9.34086
       H     0.86440  -10.58904  -10.95521
       O     1.07585   -9.97887  -11.68622
      H1     0.31593   -9.93472  -12.26041
       H     5.21223  -16.05260  -15.85183
       O     5.53829  -15.46371  -15.15639
      H1     6.30487  -15.85150  -14.70920
       H     6.77957  -13.51183  -12.15187
       O     5.98438  -13.15903  -12.59432
      H1     6.17927  -12.22555  -12.49371
       H     5.10886  -12.18151  -14.93450
       O     5.28947  -12.80671  -15.64296
      H1     5.46200  -13.58586  -15.11643
       H     3.36371  -10.39961   -8.92133
       O     3.43746   -9.55050   -8.48532
      H1     4.24089   -9.13359   -8.85338
       H     7.17940  -17.74514   -9.75363
       O     7.52775  -16.88860  -10.13383
      H1     7.50728  -16.98439  -11.11907
       H     8.57345  -10.34426  -13.47489
       O     9.00611  -10.05890  -14.30945
      H1     8.36710  -10.05811  -14.96753
       H     5.72525  -12.67632   -9.05894
       O     6.58044  -12.66306   -8.57635
      H1     6.43545  -11.97267   -7.84410
       H    11.51033  -12.19768   -8.74916
       O    10.61629  -12.41284   -9.04634
      H1    10.56804  -13.36623   -9.00576
       H     6.68929  -14.37277   -8.05446
       O     6.66569  -15.33572   -7.91837
      H1     6.94732  -15.68902   -8.77179
       H     2.77266  -12.36354   -8.59077
       O     3.59708  -12.16712   -9.14785
      H1     3.32717  -12.60004  -10.01163
       H     1.84548  -12.30361  -15.69600
       O     1.43271  -11.76120  -16.32290
      H1     0.61290  -12.26255  -16.46535
       H    10.70092  -15.46851  -10.36821
       O     9.82614  -15.15599  -10.12949
      H1     9.23368  -15.91687  -10.19638
       H     0.34206  -13.98948  -11.44211
       O     0.05374  -14.24514  -12.35471
      H1    -0.34884  -13.51302  -12.83957
       H     4.14111  -16.06344  -14.36801
       O     3.42790  -16.55857  -13.87241
      H1     2.55105  -16.13510  -14.10413
       H     3.52561  -12.80626  -18.59927
       O     4.03930  -13.47265  -18.07604
      H1     4.52706  -13.10032  -17.36101
       H     4.29511  -16.30871  -12.19746
       O     4.50046  -15.83800  -11.31946
      H1     5.17183  -15.17098  -11.58820
       H     5.07486  -10.02132  -13.42215
       O     4.55924  -10.61440  -13.98762
      H1     3.88712  -10.96650  -13.35148
       H     6.75433   -8.86640  -16.71014
       O     7.61437   -9.31663  -16.57036
      H1     8.31168   -8.87675  -17.04682
       H    11.31117  -11.59959  -10.62967
       O    11.79503  -11.13857  -11.31548
      H1    11.86745  -11.83968  -12.00660
       H    10.56681  -14.64423  -14.18481
       O    10.22709  -15.51564  -14.51198
      H1    10.20759  -15.41231  -15.50635
       H     3.73522   -7.76589  -14.67790
       O     3.34682   -8.56761  -15.11449
      H1     3.75299   -9.28185  -14.63015
       H     7.34277  -10.55958  -17.63848
       O     7.03653  -11.40895  -18.08189
      H1     6.56088  -11.79286  -17.36066
       H     2.23540  -14.52651  -10.50694
       O     1.38897  -14.11534  -10.22304
      H1     1.10659  -14.58830   -9.38060
       H    12.02200  -14.33028  -12.07825
       O    11.42574  -13.67308  -12.45196
      H1    11.85838  -13.22458  -13.18661
       H     3.75477  -13.91271   -8.04013
       O     3.97298  -14.82932   -8.05847
      H1     4.90105  -14.87435   -7.74498
       H     9.22897  -13.46315  -12.41221
       O     8.62074  -13.35641  -11.67105
      H1     9.12252  -13.73136  -10.91116
       H    10.40900  -10.85000  -14.98232
       O    10.96920  -11.42043  -15.51869
      H1    10.75522  -11.13966  -16.38533
       H     8.93732  -10.13732  -11.70079
       O     8.26018  -10.75794  -11.96413
      H1     8.52651  -11.64789  -11.74583
       H     5.15022   -6.66425  -10.12767
       O     5.02572   -7.63466  -10.03408
      H1     5.37113   -7.97727  -10.91909
       H     2.06457  -13.05577  -12.24717
       O     2.76399  -12.45486  -11.92389
      H1     2.45392  -11.50569  -12.02714
       H     8.62137  -16.13008  -13.83873
       O     7.86725  -16.67237  -13.67635
      H1     8.26258  -17.53896  -13.44974

