105
frame 3 | Written by MDAnalysis XYZWriter (release 2.4.3)
       H    -4.49119   18.19612    4.54916
       O    -5.32640   17.93926    4.12836
      H1    -5.20755   17.73020    3.19465
       H    -7.43880   15.54224    5.34851
       O    -8.42499   15.37286    5.23875
      H1    -8.67340   14.66545    4.56796
       H    -7.14724   17.85000   11.71400
       O    -7.54347   17.17535   12.20877
      H1    -7.04054   16.39821   11.97228
       H   -10.27527   16.42671   10.25114
       O    -9.38655   16.58776    9.90554
      H1    -8.85872   16.86263   10.65675
       H    -8.24121   12.04383    7.14856
       O    -7.66047   12.78714    6.88985
      H1    -8.32101   13.41941    6.54957
       H   -13.03634   16.60781    8.03960
       O   -12.60919   17.35680    8.44957
      H1   -12.35513   17.02727    9.31536
       H    -6.08459    9.84256    9.78409
       O    -6.75626   10.40666   10.21916
      H1    -6.68660   10.14116   11.16097
       H    -8.48037   18.77972    5.23382
       O    -7.82761   19.40587    5.43716
      H1    -7.08563   19.16593    4.84675
       H    -2.24135   15.17789    9.16039
       O    -2.49223   15.83749    8.47433
      H1    -2.16185   15.48090    7.70114
       H    -6.99004   14.47989   12.66109
       O    -6.49687   14.55692   11.79855
      H1    -6.96737   14.12124   11.09594
       H   -11.49421   13.46280   12.36405
       O   -12.09885   14.09529   12.72298
      H1   -11.60472   14.44429   13.44026
       H    -9.18682   16.88500    4.42672
       O    -9.71160   17.64568    4.18434
      H1   -10.30882   17.77619    4.92659
       H    -4.05696   11.60205   13.63556
       O    -4.71906   11.39935   12.97897
      H1    -4.44725   11.78252   12.15248
       H    -2.49371   13.32034   10.18730
       O    -1.62750   13.71551    9.98710
      H1    -1.27051   13.38647    9.16997
       H   -11.87338   15.72253   11.71795
       O   -11.86721   16.54413   11.25075
      H1   -11.45847   17.26321   11.76158
       H   -10.05008   11.16621   11.24976
       O   -10.34507   12.06726   11.54129
      H1   -10.57350   12.43925   10.66431
       H    -5.03776   12.33535   10.31054
       O    -4.13285   12.10819   10.51345
      H1    -4.02577   11.24074   10.02559
       H   -10.24133   15.71078    8.26286
       O   -10.35138   15.63401    7.31006
      H1    -9.48043   15.63274    6.93379
       H   -10.19757   12.91913    3.84725
       O    -9.35764   13.23961    3.47680
      H1    -9.54499   13.93716    2.85342
       H   -12.00303   11.91177    4.46548
       O   -11.49607   12.48111    5.06419
      H1   -10.94165   11.83846    5.60007
       H    -5.59304   19.45214   10.92174
       O    -5.96731   18.73723   10.42625
      H1    -5.22467   18.41474    9.83328
       H   -11.55601   18.04192    6.85704
       O   -11.21804   18.69097    6.26579
      H1   -10.58159   19.17737    6.78558
       H    -4.82755   15.80318   11.44300
       O    -4.32052   16.58716   11.36023
      H1    -4.21768   16.68623   10.40272
       H   -10.34615   18.82323    9.25822
       O   -10.18341   19.78796    9.15738
      H1    -9.29729   19.95782    9.51787
       H    -3.07404   11.78986    6.75243
       O    -2.98303   12.25390    5.94079
      H1    -3.82458   12.17729    5.52680
       H    -7.44418   12.94455    8.48437
       O    -7.45452   12.96320    9.45410
      H1    -7.59624   12.07779    9.73642
       H    -3.64364   17.60302    8.27602
       O    -4.42830   18.11548    8.31907
      H1    -4.52069   18.54769    7.44114
       H    -7.17623   14.62549    8.53549
       O    -7.33939   15.52864    8.31569
      H1    -8.14486   15.76481    8.84091
       H   -10.17220   11.84115    8.10907
       O    -9.80776   11.34307    7.35911
      H1   -10.10218   10.43126    7.46345
       H    -3.03048   19.42448    5.31012
       O    -3.29678   18.57430    5.82083
      H1    -2.58645   17.92481    5.73126
       H   -10.63757   18.07057   13.58667
       O   -10.53812   18.44946   12.69030
      H1   -10.97048   19.31198   12.79171
       H    -5.56987   16.68095    5.42165
       O    -5.89414   15.89647    5.87895
      H1    -6.35955   16.19010    6.71912
       H   -12.12084   13.06908    8.53274
       O   -11.16919   13.29226    8.53254
      H1   -11.13680   14.05642    7.95722
       H    -3.78926   15.11368    5.77825
       O    -2.96615   15.52962    5.34414
      H1    -2.80443   14.76857    4.78953
       H    -6.03366   12.93507    5.17077
       O    -5.62271   12.27497    4.59057
      H1    -6.20718   11.53977    4.68040

