105
frame 5 | Written by MDAnalysis XYZWriter (release 2.4.3)
       H    -6.76764    8.84225  -17.86599
       O    -7.56562    9.11274  -17.44319
      H1    -7.84526    8.49001  -16.76719
       H    -6.56101    5.13635  -18.84948
       O    -5.92297    5.65021  -18.26095
      H1    -5.07513    5.26020  -18.39484
       H    -7.15537   11.17837  -12.29451
       O    -7.25064   12.18214  -12.27589
      H1    -8.13262   12.32681  -11.86001
       H    -1.61644    6.41166  -14.33489
       O    -2.28656    5.76771  -14.14670
      H1    -2.27305    5.37571  -13.27685
       H    -3.06253    7.73772   -9.98261
       O    -3.86226    7.29940  -10.37621
      H1    -4.12284    7.73242  -11.14502
       H    -6.47419   11.89195  -16.45793
       O    -6.13436   11.42917  -15.69821
      H1    -6.48825   10.53229  -15.59532
       H    -5.60368    7.19319  -18.42399
       O    -5.43729    8.09355  -18.69041
      H1    -4.84909    8.66399  -18.15416
       H    -6.92948    7.18340  -14.33181
       O    -6.27090    6.73222  -13.80529
      H1    -5.82998    6.22585  -14.47520
       H    -2.37251    7.41717  -16.87776
       O    -3.04057    7.74777  -16.27289
      H1    -3.19541    8.67931  -16.36543
       H     1.37067    8.20074   -9.62377
       O     0.98485    7.94006  -10.44889
      H1     0.99939    6.95381  -10.42572
       H    -1.32287    9.68164  -13.62257
       O    -1.41082   10.10316  -14.48328
      H1    -2.31136   10.59006  -14.29385
       H    -5.80082    9.62234   -9.40713
       O    -5.85297   10.40495   -8.89151
      H1    -5.06304   10.93891   -9.04457
       H    -6.68006    8.75548  -11.90800
       O    -6.89350    9.38865  -12.62329
      H1    -7.88970    9.34478  -12.66132
       H    -4.06512    9.88206  -13.75897
       O    -3.89744   10.84440  -13.71118
      H1    -4.67342   11.21682  -14.16285
       H     2.22413    8.02234  -18.01578
       O     1.41973    7.88512  -18.50238
      H1     0.77989    7.40508  -17.91527
       H    -3.26141    6.14136  -19.67631
       O    -3.29580    5.51656  -18.93285
      H1    -3.21054    4.67350  -19.33189
       H     2.78676    5.93246  -13.87186
       O     1.98537    5.52186  -13.48563
      H1     1.78412    4.78391  -14.13427
       H    -0.70916    8.59080  -15.14024
       O    -0.40938    7.65219  -15.13419
      H1    -0.27202    7.43832  -14.17271
       H     1.12874    8.67841  -15.05549
       O     1.93269    9.16787  -14.95415
      H1     2.14053    9.02622  -14.06282
       H    -0.78164    8.12588   -8.98237
       O    -1.67721    8.30780   -9.24155
      H1    -2.10573    8.81021   -8.47654
       H    -3.76226    3.80762  -11.22212
       O    -3.36450    4.69813  -11.49725
      H1    -3.83614    5.38926  -10.95473
       H    -1.12528    3.62651  -16.88585
       O    -0.18999    3.66508  -17.07459
      H1     0.16291    3.51613  -16.15591
       H    -4.60408    6.09527  -16.14173
       O    -4.58953    5.34642  -15.55638
      H1    -3.81747    5.47078  -15.03829
       H    -1.43569   12.95176  -15.75017
       O    -1.96588   13.08062  -16.56988
      H1    -2.61771   13.72722  -16.31639
       H    -6.98034    4.59293  -16.23460
       O    -7.34676    3.82890  -15.78466
      H1    -8.15012    3.52661  -16.31756
       H    -9.09290    8.17546  -14.95397
       O    -8.58252    7.47984  -15.38683
      H1    -9.17317    6.81798  -15.81962
       H    -3.15529    2.55391  -16.04970
       O    -3.03157    3.25851  -16.70900
      H1    -3.60337    3.97061  -16.34018
       H    -4.69571    6.39595   -9.11828
       O    -5.50636    5.87078   -8.84342
      H1    -5.30755    5.02981   -8.40301
       H    -1.89440    5.90779  -18.03347
       O    -1.05245    6.28474  -17.75612
      H1    -0.60554    5.58792  -17.25811
       H     0.20994   12.39031  -14.39335
       O    -0.75210   12.51482  -14.29667
      H1    -1.01728   11.60342  -14.31642
       H    -6.73669    7.10911  -10.07227
       O    -6.85869    8.02756  -10.25286
      H1    -7.74411    8.37560   -9.99158
       H    -3.43833    7.60238  -14.28253
       O    -3.93175    8.09135  -13.58408
      H1    -4.81775    7.68257  -13.52201
       H    -1.96171    8.21327  -12.66704
       O    -1.05033    8.08337  -12.41842
      H1    -1.05221    8.05941  -11.49076
       H    -8.29209    4.83199  -14.30277
       O    -8.64813    5.16385  -13.45609
      H1    -8.03244    5.77304  -13.01771
       H    -3.26747   10.92627  -17.01277
       O    -4.01410   10.30960  -17.04504
      H1    -4.75204   10.81222  -16.70847

