105
frame 1 | Written by MDAnalysis XYZWriter (release 2.4.3)
       H     3.15891   -5.75595   -5.84219
       O     3.41652   -4.87208   -6.23750
      H1     3.61906   -5.16733   -7.11853
       H     4.97350   -2.68678   -2.15522
       O     4.88933   -3.22932   -1.28393
      H1     5.21754   -4.06030   -1.54009
       H     3.22627    3.05165  -10.64918
       O     3.82344    2.27055  -10.62910
      H1     4.41014    2.38946   -9.85870
       H    -1.20446   -1.79097   -2.93330
       O    -1.40193   -1.15847   -3.66731
      H1    -1.09096   -1.52338   -4.48672
       H     0.64765   -4.86019   -2.98628
       O     0.23095   -4.19639   -3.60088
      H1     0.97305   -3.78374   -4.05130
       H     1.34380    3.36420   -7.88791
       O     0.85959    4.17062   -7.59791
      H1     0.38030    4.38499   -8.43491
       H    -0.14751    1.34422   -8.40566
       O     0.69980    1.23392   -9.00861
      H1     0.47139    1.86247   -9.71307
       H    -1.16436   -5.39747   -6.28798
       O    -1.50389   -4.72861   -5.66519
      H1    -0.85351   -4.59936   -4.89679
       H     0.26187   -3.26232  -10.65868
       O    -0.20516   -4.05574  -10.90002
      H1     0.42495   -4.53598  -11.53078
       H    -1.06620   -3.25611   -6.30109
       O    -1.00271   -2.27201   -6.45089
      H1    -1.97169   -2.06012   -6.67062
       H     5.43514   -5.31155  -10.86342
       O     4.64563   -5.70671  -11.28865
      H1     3.84523   -5.21855  -10.99946
       H     2.16009   -3.28975   -6.27679
       O     1.62473   -2.88479   -5.58944
      H1     0.70914   -2.69603   -5.93989
       H     4.23754    2.18907   -2.57284
       O     4.30137    1.21213   -2.71123
      H1     3.82786    0.91225   -1.85799
       H     5.32014    2.86376   -7.24046
       O     4.81583    2.54119   -8.04848
      H1     4.24539    1.80256   -7.85000
       H     4.70037   -1.36989   -9.94757
       O     5.23776   -0.70274  -10.36003
      H1     4.91239   -0.54046  -11.23713
       H     7.44857   -5.54500   -7.62995
       O     7.60712   -4.62297   -7.76463
      H1     7.02215   -4.22990   -7.10556
       H    -1.39905   -4.21724   -9.62324
       O    -2.13577   -4.02890   -9.06393
      H1    -1.80724   -3.47772   -8.35980
       H    -1.33645    0.85604   -4.44639
       O    -0.89883    1.58285   -4.92893
      H1     0.02619    1.40843   -4.88272
       H     5.66281    2.45102  -11.16170
       O     6.21585    2.43881  -11.93640
      H1     7.07338    2.68949  -11.50987
       H     6.98991   -4.67597   -9.47941
       O     6.90887   -4.66856  -10.43696
      H1     7.03555   -3.80854  -10.78400
       H     2.17538   -3.00055  -11.71715
       O     2.58703   -3.23877  -12.58575
      H1     2.13609   -4.06831  -12.79864
       H     2.55181    0.27108   -4.54996
       O     1.71278    0.09579   -5.00239
      H1     1.63200   -0.86055   -5.15884
       H     2.89005    0.84390  -11.36267
       O     2.57641    0.04448  -11.81472
      H1     2.42873    0.24904  -12.73792
       H     6.89849    0.69670   -9.78518
       O     7.17038    1.45856   -9.28291
      H1     6.44405    1.73179   -8.68043
       H     1.17294    2.10399   -2.39343
       O     1.05338    1.15919   -2.18543
      H1     1.12724    0.66701   -3.06060
       H     2.21994    0.36297   -6.72920
       O     2.73457    0.46560   -7.55236
      H1     2.11851    0.80059   -8.23561
       H    -1.18333   -0.47788   -8.91634
       O    -1.29382   -1.17623   -9.58831
      H1    -1.83366   -1.84697   -9.12570
       H     4.84031   -3.58330   -5.88182
       O     5.61798   -3.03753   -6.13919
      H1     5.84402   -2.43258   -5.42716
       H     0.64420   -1.43675   -9.97263
       O     1.52045   -1.82673  -10.24358
      H1     1.73726   -1.07686  -10.91617
       H     5.17927   -0.54610   -3.21188
       O     5.52691   -1.43323   -3.43039
      H1     6.48741   -1.20534   -3.13720
       H     6.62012   -1.66408  -11.14249
       O     6.92920   -2.13222  -11.87974
      H1     6.20599   -2.41149  -12.43956
       H     4.16357    4.22494   -7.83159
       O     3.79167    5.11283   -7.75333
      H1     2.85297    4.99756   -7.52907
       H     3.69792   -1.76501   -7.54648
       O     3.31807   -2.36636   -8.21897
      H1     2.58875   -1.90178   -8.63476
       H    -1.53568    1.38445   -6.77342
       O    -1.59848    1.12023   -7.70008
      H1    -1.94497    1.94900   -8.05715
       H     3.19500   -4.00994   -8.79914
       O     2.72013   -4.87442   -8.98110
      H1     1.79176   -4.62229   -8.98809

