105
frame 5 | Written by MDAnalysis XYZWriter (release 2.4.3)
       H   -17.61661   -2.84183  -11.64874
       O   -17.22362   -2.84538  -12.56068
      H1   -17.16815   -3.81005  -12.74047
       H   -18.58201  -12.76220  -11.26617
       O   -17.79679  -12.32816  -11.63610
      H1   -17.35542  -11.83342  -10.92061
       H   -17.29156   -4.77960   -6.47059
       O   -17.48781   -5.01305   -5.58184
      H1   -18.33939   -4.64962   -5.38203
       H   -16.82108   -6.37544  -13.97665
       O   -17.40689   -5.66965  -13.65071
      H1   -18.13952   -6.06494  -13.09604
       H   -15.39038   -2.54671  -12.22233
       O   -14.50893   -2.96518  -11.97031
      H1   -14.77561   -3.86697  -11.76926
       H   -11.77200   -4.60159  -11.12066
       O   -12.00995   -5.02837  -10.24364
      H1   -12.06310   -4.22893   -9.71436
       H   -14.07902   -9.96936  -12.07939
       O   -14.67731   -9.75397  -12.80154
      H1   -14.77601   -8.83810  -13.05270
       H   -14.80114   -5.08524   -4.18070
       O   -15.54740   -4.45699   -3.98693
      H1   -16.28433   -4.70442   -4.63816
       H   -19.65993   -3.69493  -10.51678
       O   -18.70716   -3.53240  -10.53583
      H1   -18.32110   -3.69830   -9.65573
       H   -15.04564   -1.17938   -8.78203
       O   -14.90887   -2.02075   -9.28647
      H1   -14.77277   -1.71175  -10.18807
       H   -14.88997  -10.60271  -14.22806
       O   -14.77255  -11.10337  -15.05354
      H1   -15.69224  -11.30067  -15.40484
       H   -16.72727   -4.76077   -9.12088
       O   -16.89820   -4.09304   -8.43791
      H1   -16.21774   -3.42147   -8.63335
       H   -16.64072  -10.06388   -9.49159
       O   -16.56336  -10.45661  -10.36366
      H1   -16.19420   -9.91274  -11.01952
       H   -12.45320  -10.18904  -10.40524
       O   -12.98788   -9.38966  -10.55170
      H1   -13.35221   -9.21733   -9.69202
       H   -13.14916   -2.35277  -12.87520
       O   -12.33389   -2.01395  -13.31116
      H1   -12.58285   -1.28367  -13.88864
       H   -17.38851   -7.08218   -8.80270
       O   -17.48455   -7.67861   -8.01492
      H1   -18.32228   -7.40787   -7.60689
       H   -18.86330   -1.87859   -6.38732
       O   -18.54351   -2.00553   -5.47221
      H1   -17.60268   -1.83319   -5.65729
       H   -20.08667   -1.35672  -12.49823
       O   -19.78913   -1.68487  -13.32469
      H1   -18.88025   -1.84833  -13.11562
       H   -15.39625   -7.35390  -15.14077
       O   -15.87895   -7.73151  -14.38856
      H1   -16.68054   -8.10994  -14.81871
       H   -14.55869   -8.10642   -6.17087
       O   -13.99045   -8.63573   -5.58369
      H1   -13.19460   -8.58254   -6.14997
       H   -11.57089   -3.61097  -13.11244
       O   -11.07592   -4.40273  -12.80585
      H1   -11.46832   -5.12960  -13.33094
       H   -12.97606   -6.96159   -8.61153
       O   -13.03570   -7.21804   -7.65257
      H1   -12.08747   -7.55103   -7.42168
       H   -16.85012   -9.69586   -5.21557
       O   -16.63300   -9.78357   -4.24830
      H1   -17.49875   -9.81373   -3.78708
       H   -12.45817   -8.59959  -13.19207
       O   -12.31959   -7.62620  -13.24881
      H1   -11.90788   -7.53142  -14.10160
       H   -16.56401   -3.25842  -15.70548
       O   -16.47563   -2.83347  -16.53338
      H1   -16.34454   -3.52141  -17.19453
       H   -11.68641   -2.85981   -8.01448
       O   -12.04320   -2.64803   -8.89914
      H1   -12.99179   -2.44461   -8.71585
       H   -17.39962   -6.36059  -10.75052
       O   -16.65907   -6.36979  -10.16445
      H1   -15.83520   -6.23729  -10.65939
       H   -19.61766  -10.87387  -13.65767
       O   -18.92529  -10.33080  -13.32770
      H1   -18.22005  -10.94846  -13.04721
       H   -18.97742   -8.80436  -15.30976
       O   -18.02270   -8.79872  -15.56075
      H1   -17.80267   -8.27350  -16.31484
       H   -19.72225   -7.12382   -5.12242
       O   -19.30192   -7.24534   -5.96602
      H1   -18.45709   -6.83328   -5.84149
       H   -11.80189  -10.80386   -8.04901
       O   -12.48789  -10.35813   -7.54440
      H1   -13.23947  -10.95903   -7.48245
       H   -14.68895  -12.16359   -8.35793
       O   -14.61661  -11.82521   -7.44222
      H1   -15.47690  -11.43994   -7.38178
       H   -17.69195  -11.00673   -7.93482
       O   -17.09561  -10.32636   -7.59024
      H1   -17.47371   -9.52840   -8.03945
       H   -12.23492   -5.84914   -6.49930
       O   -12.15462   -4.99881   -6.04064
      H1   -11.51213   -4.53169   -6.51479
       H   -13.63704   -6.31276  -12.13280
       O   -14.25481   -5.91389  -11.50839
      H1   -13.74883   -5.49853  -10.83032

