105
frame 1 | Written by MDAnalysis XYZWriter (release 2.4.3)
       H    -5.35617   -3.58093  -11.00131
       O    -5.04454   -4.09350  -10.20332
      H1    -4.15544   -3.91909  -10.05128
       H    -7.81943   -7.85153  -17.20907
       O    -7.50367   -8.61353  -17.76444
      H1    -7.12039   -8.30667  -18.56143
       H    -9.66010   -3.54828  -16.98084
       O    -9.83572   -4.46274  -16.72915
      H1   -10.54761   -4.76726  -17.31632
       H    -7.75662  -10.82828  -11.15854
       O    -7.26414  -10.40279  -11.90134
      H1    -6.43500  -10.11214  -11.51392
       H    -7.62319   -1.66047  -16.76195
       O    -8.43438   -2.07749  -17.20397
      H1    -9.21102   -1.50116  -17.07663
       H    -4.59966   -2.18106  -15.71522
       O    -3.81750   -2.74246  -15.66023
      H1    -3.60329   -2.86605  -14.71132
       H    -0.65951   -6.93984  -11.72359
       O    -1.28615   -7.63338  -11.83153
      H1    -2.12837   -7.16370  -11.51807
       H    -5.97899   -5.53828   -9.15460
       O    -6.09145   -6.34501   -8.72550
      H1    -6.73016   -6.07768   -8.03029
       H    -4.71090   -9.61882  -15.91520
       O    -5.20486   -9.78010  -16.72017
      H1    -5.96165   -9.19964  -16.94468
       H    -1.61506   -2.73425  -12.58427
       O    -1.72565   -2.78002  -13.52309
      H1    -1.50213   -3.65427  -13.83001
       H    -4.73077   -7.81974  -11.40912
       O    -5.08743   -8.63784  -10.97825
      H1    -4.92736   -8.46928  -10.08474
       H   -11.62638   -5.70568  -14.06508
       O   -11.51554   -4.77612  -14.27565
      H1   -10.89125   -4.64398  -15.01836
       H    -7.43135   -2.77754  -10.74642
       O    -7.46988   -1.94982  -10.24952
      H1    -7.72730   -1.30478  -10.96486
       H    -7.31680   -7.99426  -12.69810
       O    -8.14720   -7.57467  -12.57963
      H1    -8.03180   -6.74380  -13.04181
       H    -8.39833   -7.35617  -10.74560
       O    -8.41768   -6.89411   -9.90980
      H1    -7.49363   -7.08596   -9.57577
       H    -8.19443   -0.68171  -12.86573
       O    -8.34689   -1.57439  -13.20912
      H1    -8.83504   -2.07084  -12.55323
       H    -3.42979   -5.56810  -17.01199
       O    -4.27761   -5.12027  -16.88200
      H1    -4.14750   -4.22623  -16.47200
       H    -6.72493   -6.04995  -17.45945
       O    -7.47137   -6.08477  -16.84785
      H1    -8.15257   -5.50542  -17.13941
       H    -3.09474   -9.98275  -19.46367
       O    -3.15082   -9.35083  -18.70856
      H1    -3.93717   -9.39179  -18.21637
       H    -0.74816   -9.19283  -14.79802
       O    -1.21749   -8.41573  -14.42961
      H1    -1.05318   -8.44961  -13.46195
       H    -4.18356   -8.01339  -14.37051
       O    -4.17083   -8.95194  -14.34691
      H1    -3.23399   -9.21136  -14.30986
       H    -5.72127   -0.43891  -17.27225
       O    -6.00482   -0.86175  -16.50611
      H1    -6.10278   -0.15211  -15.88346
       H    -3.21054   -0.77013  -12.19016
       O    -2.72960    0.03379  -11.87369
      H1    -2.24291   -0.43744  -11.11865
       H    -4.07540   -9.95263  -11.57257
       O    -3.56894  -10.81282  -11.76023
      H1    -4.01084  -11.42445  -11.09910
       H    -1.48205   -2.05552  -17.88637
       O    -1.96544   -1.36575  -17.44733
      H1    -2.64390   -1.86215  -16.92280
       H    -4.29877   -5.75769  -10.91098
       O    -3.93478   -6.26508  -11.64076
      H1    -4.05618   -5.80448  -12.48949
       H    -4.42342   -5.77965  -15.26094
       O    -4.44297   -5.93124  -14.30451
      H1    -5.33996   -5.78997  -14.05841
       H    -9.31036   -4.22547  -11.45536
       O    -8.44304   -4.63367  -11.50238
      H1    -8.55533   -5.51534  -11.09334
       H    -6.58166   -2.19365  -13.00905
       O    -5.85312   -2.86132  -12.77382
      H1    -6.01029   -3.66389  -13.26884
       H    -5.13936   -5.46353  -18.15009
       O    -5.78852   -5.84286  -18.83294
      H1    -5.30108   -6.02734  -19.66017
       H    -7.75355   -4.73150  -13.52829
       O    -7.03478   -5.15174  -14.03421
      H1    -7.42552   -5.39794  -14.88779
       H    -2.15396   -8.49413   -9.87899
       O    -2.73944   -8.18579   -9.14329
      H1    -2.68760   -8.80002   -8.42342
       H    -2.47829   -7.63446  -18.18473
       O    -2.26225   -6.72071  -17.86135
      H1    -1.32278   -6.60477  -18.05409
       H    -1.16309   -6.21943  -14.52201
       O    -0.76672   -5.32765  -14.46094
      H1    -0.59776   -5.12983  -15.41749
       H   -10.32098  -10.41860  -13.59244
       O   -10.06336   -9.58494  -13.93296
      H1    -9.39225   -9.26361  -13.27152

