105
frame 10 | Written by MDAnalysis XYZWriter (release 2.4.3)
       H   -14.76146  -12.55040   -0.30355
       O   -14.78673  -13.04252   -1.14482
      H1   -15.69692  -12.84823   -1.49288
       H   -17.52248  -13.35375   -9.39517
       O   -17.63365  -14.11317   -9.97024
      H1   -16.81469  -14.64938   -9.96279
       H   -16.19713   -7.03999   -2.81415
       O   -15.95654   -6.61641   -1.97602
      H1   -14.97323   -6.54745   -1.92219
       H   -17.17284   -5.89537   -7.53960
       O   -17.88523   -6.49929   -7.17536
      H1   -18.32867   -6.07647   -6.40172
       H   -11.04159   -7.92547   -5.89980
       O   -11.82438   -7.78032   -5.27126
      H1   -12.49526   -7.31583   -5.75985
       H   -17.55957  -15.66253   -7.40657
       O   -16.75976  -15.50988   -6.95762
      H1   -16.96382  -15.80492   -6.03262
       H   -15.19281  -12.83252  -12.47728
       O   -15.75917  -12.59081  -13.29940
      H1   -15.55103  -13.23297  -14.03979
       H   -13.19959   -7.81184   -9.81716
       O   -14.05880   -7.33082   -9.83157
      H1   -13.79833   -6.43718  -10.13348
       H   -14.12982   -6.61503   -7.97162
       O   -13.68363   -6.58933   -7.13047
      H1   -14.06895   -5.84384   -6.66365
       H   -13.78533  -10.78528  -11.08720
       O   -14.36477  -10.41380  -11.72325
      H1   -14.51146  -11.22570  -12.28720
       H   -13.94730   -9.51730   -3.43593
       O   -13.01678   -9.67631   -3.69662
      H1   -12.68962   -9.13062   -4.40619
       H   -12.02172   -6.34695   -8.20964
       O   -11.21716   -5.77850   -8.39827
      H1   -10.96041   -5.96461   -9.27407
       H   -10.13796  -10.39773   -6.88833
       O    -9.80091  -11.29549   -6.65003
      H1   -10.55562  -11.86539   -6.51545
       H   -10.12876   -8.07688   -7.76894
       O    -9.81257   -8.37959   -6.93946
      H1    -8.90777   -8.55948   -7.04312
       H   -15.94241   -9.23911   -3.17712
       O   -15.63292  -10.06551   -2.66906
      H1   -15.92581  -10.82559   -3.17181
       H   -18.10519   -8.87222   -9.04225
       O   -18.56997   -8.93047   -8.19501
      H1   -18.39267   -8.09890   -7.69879
       H   -17.37315  -11.45679   -7.51175
       O   -17.62744  -12.16825   -8.14387
      H1   -18.36015  -12.67058   -7.79819
       H   -17.94245  -13.11385   -2.80023
       O   -17.18748  -12.58396   -2.54415
      H1   -17.53554  -11.85799   -1.98407
       H   -12.88382  -11.29356   -4.32274
       O   -12.55215  -12.14335   -4.80575
      H1   -13.15127  -12.88530   -4.59916
       H   -15.65193   -8.30686   -9.99701
       O   -16.42684   -8.90476  -10.22118
      H1   -15.85036   -9.58813  -10.56291
       H   -16.02242  -13.47827   -6.47232
       O   -15.98835  -12.74769   -5.85409
      H1   -16.86406  -12.41503   -5.80681
       H   -15.13477  -13.20102   -4.37940
       O   -14.60611  -13.79773   -3.82778
      H1   -14.66536  -13.55312   -2.90255
       H   -19.13355   -9.32025   -3.50621
       O   -19.52150   -8.86168   -4.30159
      H1   -20.05859   -8.10464   -3.88797
       H   -11.69995  -14.32370   -8.07033
       O   -11.69988  -14.39027   -7.16238
      H1   -11.43928  -15.24983   -6.99694
       H   -17.49732   -9.75258   -7.06758
       O   -16.97287  -10.18780   -6.38601
      H1   -16.10715   -9.79319   -6.57172
       H   -17.39450   -8.38540   -4.56203
       O   -16.56625   -7.97747   -4.33647
      H1   -16.41328   -7.29551   -4.94297
       H   -10.97941   -8.37927   -9.94471
       O   -11.54573   -8.41451   -9.16344
      H1   -11.93113   -9.31700   -9.21501
       H   -13.26216  -12.15064   -9.37137
       O   -12.76929  -11.48986   -8.89079
      H1   -13.38579  -11.16434   -8.21294
       H   -18.72195  -12.28411  -11.20261
       O   -19.34215  -11.60901  -10.97798
      H1   -20.02573  -11.61245  -11.67677
       H   -15.50049  -15.99212   -8.75558
       O   -15.32697  -15.64809   -9.61799
      H1   -15.33733  -16.40632  -10.25254
       H   -16.07263  -14.83891   -3.96405
       O   -16.70559  -15.49730   -4.13496
      H1   -16.34987  -16.23216   -3.54441
       H   -13.44965  -13.45448  -11.41859
       O   -14.29391  -13.23484  -11.04457
      H1   -14.58585  -14.03034  -10.57955
       H   -15.01495  -11.02349   -6.88860
       O   -14.24536  -10.47507   -6.75010
      H1   -13.55621  -10.94169   -6.33271
       H   -11.15851  -13.18898   -3.98173
       O   -10.42639  -13.58299   -3.49398
      H1   -10.72619  -14.31273   -2.95433
       H   -14.19785  -15.44929   -5.05223
       O   -13.73973  -15.87782   -5.79726
      H1   -13.31432  -15.13374   -6.30722

