105
frame 1 | Written by MDAnalysis XYZWriter (release 2.4.3)
       H     1.89799    9.92808   -1.73347
       O     2.15840    8.97683   -1.80426
      H1     2.82839    8.85206   -1.12909
       H     6.37203   13.27666   -1.42306
       O     5.84608   13.52390   -2.15678
      H1     6.25015   13.13318   -2.97641
       H     0.86596    8.12619   -3.68913
       O     1.10178    7.73805   -4.56520
      H1     0.61972    8.31922   -5.17870
       H     4.67209    5.87934    1.86970
       O     4.67001    5.13008    1.34543
      H1     3.72749    4.92647    1.17512
       H     6.43621   13.08287   -5.16184
       O     7.19803   12.76061   -4.58663
      H1     7.08296   11.82559   -4.36046
       H     7.41138    9.48983   -4.85591
       O     7.01542   10.12097   -4.23983
      H1     6.07243    9.99542   -4.34352
       H     4.01536    7.18957   -6.03911
       O     3.28869    7.76899   -6.26685
      H1     2.69262    7.85344   -5.48447
       H    10.86283    8.35214   -1.68608
       O    10.50804    9.23694   -1.47944
      H1    10.75475    9.61059   -0.60376
       H     8.58701   10.07384   -1.45125
       O     7.76241   10.48900   -1.52922
      H1     7.60469   10.47965   -2.45040
       H     5.13666    2.98773    1.12467
       O     5.51455    2.22696    0.72554
      H1     6.04277    2.47334   -0.02658
       H     4.86456    6.14993   -4.28483
       O     4.60455    5.77799   -5.13307
      H1     3.73330    5.30269   -5.01734
       H     4.23754    2.18907   -2.57284
       O     4.30137    1.21213   -2.71123
      H1     3.82786    0.91225   -1.85799
       H     1.20739    4.68799   -5.72991
       O     1.86840    5.11796   -5.15881
      H1     1.68974    6.04584   -5.02838
       H     0.56945    4.46480   -2.39356
       O     1.37481    3.93067   -2.15268
      H1     1.58090    3.87975   -1.21055
       H     3.44190    7.50217    0.49794
       O     4.04897    8.03328    0.00250
      H1     4.36733    7.50439   -0.74021
       H     5.37619    9.09618    0.45333
       O     6.15805    9.59512    0.75060
      H1     6.67657    9.90169    0.01937
       H     7.48769    8.35820    0.97134
       O     8.17405    7.75691    1.19342
      H1     7.85620    6.86435    0.99771
       H     5.65997    4.50164   -5.54011
       O     6.22852    3.79655   -5.95125
      H1     6.88187    3.48091   -5.29013
       H     8.53804    7.77578   -5.71041
       O     7.96230    8.40748   -6.17582
      H1     7.38753    7.92954   -6.77003
       H    12.44635    6.42270   -2.61804
       O    11.64661    6.91708   -2.47306
      H1    11.11983    6.71850   -3.24072
       H     9.18332    4.87093   -3.19653
       O     9.57318    4.46708   -4.01926
      H1    10.45821    4.11354   -3.86476
       H     5.27996    6.61413   -7.83777
       O     5.83845    7.41755   -7.80780
      H1     5.20834    8.20134   -7.73953
       H     6.26959    2.69858   -2.02081
       O     7.09276    2.89709   -1.58634
      H1     7.74347    2.21632   -1.77922
       H     5.77393    7.47777   -2.82653
       O     4.81187    7.28392   -2.79223
      H1     4.44826    8.01538   -3.25639
       H     3.68347    7.76020   -9.68939
       O     2.92580    7.60581   -9.11659
      H1     3.30882    7.38486   -8.26104
       H     4.15061    8.98760   -5.45922
       O     4.31901    9.58257   -4.69246
      H1     3.66856   10.32949   -4.86890
       H     3.44560    4.32633   -2.35289
       O     4.34452    4.10199   -2.15993
      H1     4.96649    4.82227   -2.17230
       H     7.87310    6.72348   -2.26681
       O     7.48395    7.16111   -3.07710
      H1     7.92258    8.08998   -3.11413
       H     8.75022    2.31278   -5.65401
       O     8.25485    2.28172   -4.78398
      H1     8.56161    3.01539   -4.24577
       H     4.16357    4.22494   -7.83159
       O     3.79167    5.11283   -7.75333
      H1     2.85297    4.99756   -7.52907
       H     5.74146    7.54881    3.16932
       O     5.01586    7.78299    2.60868
      H1     5.29935    8.22635    1.79452
       H     0.42705    8.35102   -1.96306
       O    -0.54114    8.14586   -1.93883
      H1    -1.01713    9.00659   -2.07655
       H     9.95969    6.05801   -4.79118
       O    10.08121    7.01266   -4.88427
      H1    10.50060    7.14937   -5.77565
       H     6.68306    4.86164    0.86517
       O     7.59156    5.14267    0.87876
      H1     8.14395    4.52735    1.35276
       H     9.77823    6.10926   -1.01708
       O     9.13193    5.58333   -1.45934
      H1     8.82870    4.97478   -0.77383

