105
frame 8 | Written by MDAnalysis XYZWriter (release 2.4.3)
       H    -7.40354   -8.45060  -17.62774
       O    -7.84109   -9.17592  -18.10238
      H1    -7.49740   -9.03253  -18.95548
       H   -13.48002  -13.61429  -17.70376
       O   -13.88285  -13.20202  -18.45661
      H1   -14.49712  -12.57805  -18.06671
       H   -12.01957  -15.26478  -17.12638
       O   -12.33372  -14.43297  -16.76572
      H1   -11.55323  -13.88797  -16.81095
       H    -9.09724  -12.72472  -18.15001
       O    -9.88009  -12.61837  -18.70388
      H1    -9.63030  -12.45470  -19.59590
       H    -7.39128  -16.52266  -15.25055
       O    -7.87943  -16.56458  -14.37927
      H1    -7.48338  -17.36434  -13.90617
       H    -8.89033  -10.82311  -10.35740
       O    -8.62982  -10.16038  -11.02076
      H1    -7.66690  -10.10600  -10.79929
       H   -11.23231  -16.44137  -11.92067
       O   -11.38459  -16.40928  -10.98008
      H1   -10.53431  -16.56546  -10.55770
       H   -11.20757  -10.86995  -13.21139
       O   -11.39069  -11.39048  -13.98090
      H1   -10.61540  -11.90139  -14.16424
       H    -9.89285  -13.91571  -12.08510
       O   -10.41755  -13.53100  -11.34533
      H1   -10.84247  -14.33766  -11.01805
       H   -12.93140   -9.55246  -14.07008
       O   -13.47519   -8.91019  -13.56151
      H1   -14.20847   -9.46583  -13.23623
       H    -7.73975  -14.95746  -13.67955
       O    -7.88361  -14.05773  -13.28117
      H1    -7.01017  -13.75398  -13.08015
       H    -9.92433  -12.62602   -9.81353
       O    -9.59658  -12.17715   -8.98926
      H1    -9.71711  -12.87759   -8.32197
       H   -13.76634  -16.60803  -14.42552
       O   -12.94464  -16.13651  -14.55346
      H1   -12.99287  -15.48642  -15.22452
       H    -7.48580  -10.78625  -14.20113
       O    -6.76795  -10.22020  -13.89778
      H1    -7.15876   -9.71926  -13.13704
       H   -14.27848  -11.07900  -16.32367
       O   -15.10061  -11.57145  -16.50345
      H1   -15.77265  -10.87486  -16.25776
       H   -10.78335   -8.63978  -18.66709
       O   -10.14186   -7.92058  -18.25276
      H1    -9.30286   -8.43547  -18.14014
       H    -8.72021  -13.31284  -14.76884
       O    -9.25639  -12.84337  -15.40297
      H1    -8.59629  -12.31608  -15.94530
       H   -16.44623  -14.41868  -11.88657
       O   -16.31053  -13.67800  -12.46584
      H1   -15.37417  -13.52516  -12.57740
       H   -14.88984  -12.86464  -15.33819
       O   -14.87544  -13.83135  -15.05479
      H1   -14.41886  -13.78724  -14.20212
       H   -12.61283   -8.73126  -16.52986
       O   -12.57451   -7.88665  -16.98029
      H1   -11.82035   -7.75183  -17.58768
       H   -10.30424   -6.52232  -13.29422
       O   -10.32814   -6.45913  -12.29457
      H1   -11.20350   -6.04691  -12.16100
       H   -11.54093  -10.17695  -19.90816
       O   -11.37329  -10.24084  -18.95708
      H1   -10.85559  -11.02071  -18.81552
       H    -5.37213  -12.31689  -13.02431
       O    -5.37479  -12.64520  -12.08675
      H1    -5.56769  -11.82773  -11.60923
       H   -15.93688  -10.95779  -11.72399
       O   -15.85298  -10.21475  -12.26396
      H1   -15.78168   -9.52202  -11.66161
       H    -9.99138   -9.59346  -11.83421
       O   -10.97115   -9.48224  -11.82106
      H1   -11.07851   -8.67238  -12.33929
       H    -5.31030   -9.96549  -15.16281
       O    -4.46472  -10.09549  -15.62301
      H1    -3.81830   -9.58595  -15.05500
       H   -12.89526  -13.06341  -13.05824
       O   -13.57040  -13.73432  -12.74843
      H1   -13.28629  -14.62121  -13.00794
       H   -11.79753   -7.09717  -15.67422
       O   -11.32649   -6.66385  -14.92898
      H1   -10.47222   -6.41838  -15.36573
       H    -7.31500  -13.61788  -10.21910
       O    -7.48916  -14.34132   -9.63379
      H1    -8.29654  -14.19784   -9.18025
       H   -11.01367  -16.71066  -14.11586
       O   -10.38623  -17.22237  -13.57037
      H1    -9.51919  -16.92895  -13.89176
       H   -11.54710   -9.81500  -10.05716
       O   -11.75198   -9.64419   -9.12054
      H1   -12.28327  -10.43176   -8.81987
       H    -6.63630  -12.44554  -17.15723
       O    -7.28782  -11.75335  -16.81730
      H1    -7.21478  -11.03803  -17.47948
       H   -13.86112  -14.04123  -10.59054
       O   -14.22330  -13.93191   -9.70320
      H1   -13.89167  -14.67364   -9.20830
       H   -11.96137  -10.66555  -16.94042
       O   -12.49812  -10.42695  -16.15787
      H1   -12.04631  -10.92324  -15.46852
       H   -14.01750   -7.10980  -13.70708
       O   -14.37372   -6.26865  -13.41975
      H1   -14.94658   -6.32615  -12.60922

