105
frame 1 | Written by MDAnalysis XYZWriter (release 2.4.3)
       H   -18.05040    0.20878   10.47884
       O   -18.70549   -0.14252   11.11262
      H1   -18.79780    0.54676   11.81666
       H   -13.05900    3.34436   13.15331
       O   -13.23164    2.47163   13.57922
      H1   -12.49759    2.10996   13.99620
       H   -16.76404   -5.93955   13.11923
       O   -16.14173   -5.20353   13.19357
      H1   -16.15909   -4.74328   14.04035
       H   -13.10635    3.56947   17.22548
       O   -12.22466    3.18352   17.25448
      H1   -11.87899    3.35379   18.16457
       H   -14.32889   -0.42503   15.02125
       O   -13.36338   -0.50372   15.03332
      H1   -13.26977   -1.06872   14.24577
       H   -15.72236    6.23940   10.32492
       O   -15.05380    5.62470    9.86524
      H1   -14.70038    5.09189   10.57397
       H   -14.00333    5.36199   14.00391
       O   -13.47223    5.15469   13.21927
      H1   -12.54624    5.37415   13.55785
       H   -18.81385    4.68618   15.20259
       O   -18.05606    4.79784   14.59653
      H1   -17.46597    4.03318   14.88852
       H   -16.39049   -3.35172   12.40048
       O   -16.61816   -2.51745   11.98876
      H1   -17.53839   -2.42597   11.89046
       H   -15.45859    2.72492   15.68415
       O   -14.91054    3.48237   15.50130
      H1   -14.26969    3.14700   14.77429
       H   -19.10259    2.38771   13.02406
       O   -19.05778    2.38403   12.08229
      H1   -18.23856    2.76698   11.83050
       H   -18.15895   -5.83510   14.91830
       O   -19.12200   -5.83523   14.69428
      H1   -19.15001   -5.75713   13.70404
       H   -14.72192    1.77415   13.00527
       O   -15.59600    1.24348   12.81465
      H1   -15.42164    0.66935   12.05759
       H   -17.21386    1.06301    8.57448
       O   -16.84889    0.43640    9.23316
      H1   -16.68793   -0.41278    8.84323
       H   -15.26066    1.03967    9.13109
       O   -14.34810    1.31803    8.85096
      H1   -13.85279    0.50360    8.68421
       H   -15.79496    0.10948   14.20246
       O   -16.03241   -0.27462   15.02592
      H1   -16.20916   -1.21052   14.79911
       H   -16.64882   -2.57726   19.20861
       O   -17.14315   -1.76077   19.23051
      H1   -18.06818   -1.99993   19.00056
       H   -19.16470   -4.10259   15.35799
       O   -19.32374   -3.31698   15.87526
      H1   -19.74883   -2.68426   15.31092
       H   -13.64633   -2.77041   11.54876
       O   -14.08695   -2.91271   10.67160
      H1   -15.03751   -2.70203   10.90312
       H   -12.14398    3.76224    9.94213
       O   -12.91128    3.55560   10.53634
      H1   -13.46364    2.95627    9.98796
       H   -13.76608   -6.16193   16.89460
       O   -14.26738   -5.47175   16.49625
      H1   -15.01091   -5.98340   16.10236
       H   -12.79723   -3.19355   13.54791
       O   -12.80438   -2.33477   13.13694
      H1   -11.94021   -2.23607   12.65927
       H   -12.21358   -1.31664   16.21582
       O   -11.65669   -1.83510   16.76252
      H1   -11.06185   -2.25803   16.14111
       H   -16.20200   -2.75555   16.10411
       O   -16.48384   -3.00575   15.22225
      H1   -17.41710   -3.09739   15.32597
       H    -9.87088   -1.03654   14.25074
       O    -9.39646   -0.49217   13.69777
      H1    -9.23365    0.35764   14.09022
       H   -19.59126   -2.25724   11.17752
       O   -19.53349   -2.91861   11.85268
      H1   -19.62421   -2.42686   12.68325
       H    -9.92733    1.68176   16.08000
       O    -9.09041    1.77480   16.55670
      H1    -8.72727    0.86374   16.55958
       H   -10.08139   -2.23787   11.49283
       O   -10.80559   -1.71283   11.27453
      H1   -10.47278   -0.83209   11.42822
       H   -11.27232    0.65055   10.95296
       O   -10.44167    0.90936   11.41427
      H1   -10.82486    0.93957   12.30206
       H   -15.61845    6.58055   15.54910
       O   -14.78679    6.05568   15.47147
      H1   -15.03078    5.17872   15.73034
       H   -18.66714    3.00597   18.83521
       O   -18.20968    2.24056   18.54169
      H1   -17.39850    2.29601   19.05179
       H   -17.78460    1.94299   16.81544
       O   -17.51891    1.88474   15.88469
      H1   -16.96331    1.15184   15.75758
       H   -14.58287   -3.80469   17.30932
       O   -14.91883   -3.00871   17.80476
      H1   -14.12538   -2.43141   17.83230
       H   -13.95414   -4.98097   14.77067
       O   -13.69546   -5.14990   13.84676
      H1   -14.55947   -5.26191   13.40485
       H   -11.63707    2.02446   15.84361
       O   -11.38247    1.44016   15.15113
      H1   -11.94700    0.64281   15.04995

