105
frame 3 | Written by MDAnalysis XYZWriter (release 2.4.3)
       H     8.65581   -1.36667    0.02576
       O     8.24652   -2.20985    0.08276
      H1     9.01889   -2.80677    0.12543
       H     4.70869   -1.29281   -3.16161
       O     4.51370   -2.15352   -3.53808
      H1     4.62895   -2.83100   -2.87579
       H    11.67363   -2.16215   -0.23780
       O    11.52586   -2.02732   -1.24841
      H1    11.92364   -2.80977   -1.62354
       H     5.46598   -2.20731    1.72334
       O     5.80645   -2.79968    0.99185
      H1     6.63101   -2.39096    0.72391
       H    11.76838   -0.76337   -7.48199
       O    12.19159   -1.54781   -7.80483
      H1    12.39834   -1.40746   -8.67530
       H    11.15421    2.32006   -2.15680
       O    11.63610    2.55277   -1.39333
      H1    12.39716    3.08931   -1.77178
       H     5.08664    2.90461    0.57674
       O     5.53357    2.75424   -0.27365
      H1     5.23331    3.35156   -0.98775
       H     9.74971    1.27871   -7.24942
       O     8.84027    1.35956   -7.00003
      H1     8.44217    1.98666   -7.62668
       H     3.86756    3.58171   -4.02293
       O     3.28205    3.69565   -4.78073
      H1     2.36302    3.77995   -4.37382
       H     5.64484    1.04831   -2.82037
       O     4.89083    0.54599   -3.24869
      H1     4.36039    0.59283   -2.46041
       H     5.35899    3.61205   -7.04854
       O     4.71478    3.19278   -7.65565
      H1     4.22676    2.55015   -7.13816
       H     5.47701   -0.37566   -8.42703
       O     5.82762    0.22764   -9.07597
      H1     4.95116    0.43032   -9.43816
       H     6.63744   -5.25419   -7.37387
       O     6.97509   -4.34397   -7.53073
      H1     6.36577   -3.79455   -6.98071
       H    10.82330    0.66878   -3.71271
       O    10.09207    1.03006   -3.12266
      H1     9.34893    0.99406   -3.71997
       H    10.15847   -4.47938   -8.23275
       O     9.63853   -3.85503   -7.62568
      H1     8.77977   -4.31746   -7.41879
       H    13.26714    0.78331   -1.64299
       O    13.24834    0.05327   -2.27414
      H1    12.70197   -0.63715   -1.76243
       H     3.38433    0.10230   -4.37912
       O     2.48540    0.14865   -4.72247
      H1     1.97254   -0.64286   -4.47098
       H     5.93805    5.29639   -5.65306
       O     6.49985    4.77977   -6.21822
      H1     6.86079    4.07874   -5.59019
       H     6.80500    1.83895   -9.17525
       O     7.41920    2.56438   -9.02265
      H1     6.92932    3.39672   -9.09127
       H    10.05127    4.68477   -3.91264
       O    10.23976    4.31288   -4.78692
      H1    11.20755    4.40253   -4.95636
       H     7.52432    2.20189   -3.28423
       O     7.33628    1.58181   -2.53750
      H1     8.02819    1.74726   -1.85784
       H     4.42629   -4.04638   -0.91350
       O     5.06325   -4.10223   -1.60453
      H1     5.77899   -3.51413   -1.40605
       H     8.50805   -2.41532   -1.73909
       O     8.79890   -2.42379   -2.65367
      H1     9.74833   -2.17782   -2.46627
       H     8.79194   -0.41527   -7.62908
       O     8.99809   -1.03601   -8.33781
      H1     9.14962   -1.89893   -7.94811
       H    12.09359   -3.32584   -4.97220
       O    12.63701   -2.57695   -5.21839
      H1    12.34841   -2.37393   -6.11994
       H    12.05642    1.35224   -5.83623
       O    11.60466    1.09409   -6.62851
      H1    11.53701    1.90083   -7.14553
       H     5.31046   -2.85631   -5.35677
       O     5.99789   -2.43473   -5.91594
      H1     6.66120   -2.01976   -5.35915
       H     7.84104   -0.27582   -4.13463
       O     8.12646   -0.98275   -4.77325
      H1     8.56202   -1.65347   -4.24448
       H    10.63165   -4.37539   -6.11069
       O    11.05645   -4.81423   -5.37290
      H1    10.69219   -5.70514   -5.33750
       H     8.02663    1.93943   -5.31891
       O     7.86434    2.85607   -4.89356
      H1     8.74960    3.28787   -4.97894
       H     4.36639    0.92555    0.08654
       O     3.75339    0.41511   -0.46228
      H1     3.56086   -0.41971   -0.03257
       H     4.67240   -1.63374   -6.85406
       O     4.23148   -1.55685   -7.70261
      H1     3.50418   -0.93831   -7.59844
       H     7.26981    3.40585   -0.38796
       O     8.13471    3.86226   -0.38967
      H1     8.82631    3.51207    0.21318
       H     8.93906    6.21373   -2.38633
       O     8.74834    5.39771   -2.82410
      H1     8.57864    4.73555   -2.08734
       H     9.59163    0.69696   -1.23067
       O     8.99828    0.55844   -0.47801
      H1     9.61703    0.63480    0.30155

