105
frame 3 | Written by MDAnalysis XYZWriter (release 2.4.3)
       H    -8.00293   -8.81603  -17.45159
       O    -8.00155   -9.57333  -18.06486
      H1    -7.82601   -9.26290  -18.95928
       H   -12.50889  -17.63295  -16.05942
       O   -12.12436  -17.59310  -16.96254
      H1   -11.40173  -18.24164  -16.90155
       H   -11.56766  -12.74079  -16.97986
       O   -12.17653  -13.13070  -16.26024
      H1   -11.48015  -13.71148  -15.86824
       H   -10.02486  -15.36583  -15.82424
       O   -10.21097  -14.61473  -15.30929
      H1    -9.50343  -13.95461  -15.26649
       H    -9.67491  -11.72432  -18.13977
       O   -10.61901  -11.60808  -18.41532
      H1   -10.73069  -10.85335  -19.03451
       H    -8.05012  -17.19277  -15.30696
       O    -7.90628  -17.79219  -14.58205
      H1    -7.11054  -18.21918  -14.92391
       H   -11.47142  -14.99217  -11.62580
       O   -11.19474  -14.61849  -10.75191
      H1   -10.78266  -15.33862  -10.25077
       H   -11.69516  -14.51061  -19.81578
       O   -10.78304  -14.10521  -19.83057
      H1   -10.65331  -13.31819  -19.26892
       H    -8.76235   -9.72263  -12.88075
       O    -9.52259  -10.32090  -12.98747
      H1    -9.29583  -11.04546  -13.54399
       H   -15.23679  -14.47647  -17.62857
       O   -15.34000  -14.98454  -18.42605
      H1   -14.48237  -15.24536  -18.81218
       H   -13.73501  -18.48023  -18.64293
       O   -13.52006  -19.03085  -19.36588
      H1   -13.78859  -18.50867  -20.22426
       H   -12.66577  -16.24421  -13.24980
       O   -11.74670  -15.85329  -13.15921
      H1   -11.36935  -15.40856  -13.89942
       H   -16.96062  -12.33585  -16.24568
       O   -17.43493  -12.98045  -15.64456
      H1   -17.50346  -12.36731  -14.91812
       H    -5.87907   -9.21869  -14.64840
       O    -5.92744   -9.86195  -15.36055
      H1    -6.84635  -10.02250  -15.53215
       H   -14.24242  -10.30630  -12.65853
       O   -14.59528  -10.87338  -13.37718
      H1   -15.02705  -10.23509  -13.92376
       H    -8.10020  -12.37903  -14.55757
       O    -8.93726  -12.20516  -15.04283
      H1    -8.66992  -12.19589  -15.99811
       H   -14.65890   -9.93613  -16.54134
       O   -13.94960   -9.49698  -16.00357
      H1   -13.66116  -10.18195  -15.41230
       H   -13.87412  -12.04040  -12.31854
       O   -13.68836  -12.70470  -11.59112
      H1   -12.77026  -12.60667  -11.39713
       H   -15.03192  -18.41712  -15.73302
       O   -14.56646  -18.86694  -14.97419
      H1   -14.13678  -19.68166  -15.31320
       H   -12.80227  -16.32370  -20.32590
       O   -13.00306  -15.80541  -19.52300
      H1   -12.60308  -16.19526  -18.77443
       H   -12.39021   -9.28849  -17.31196
       O   -11.49613   -9.04488  -17.53531
      H1   -11.01504   -9.89029  -17.64998
       H   -16.60793  -10.90061  -17.55927
       O   -16.29274  -10.81838  -16.65368
      H1   -16.93164  -10.28459  -16.17897
       H    -5.70921  -11.81699  -13.85056
       O    -6.49877  -11.91748  -13.28905
      H1    -6.70570  -11.10171  -12.84613
       H   -14.11824  -13.42454  -15.75692
       O   -14.93281  -13.94297  -15.56999
      H1   -15.58163  -13.30101  -15.25929
       H   -16.49847  -16.90249  -16.27626
       O   -15.86332  -17.45836  -16.78027
      H1   -15.42017  -16.72684  -17.23323
       H   -10.43980  -11.50726  -11.93843
       O   -10.92054  -11.92478  -11.17992
      H1   -10.73754  -12.92707  -11.20072
       H    -9.47083  -16.61979  -18.67547
       O    -9.85039  -16.51020  -19.54487
      H1   -10.23217  -15.59500  -19.57664
       H   -15.23064  -13.98206  -12.18045
       O   -15.64386  -14.70501  -12.75940
      H1   -15.43181  -14.55538  -13.68561
       H    -8.87960  -17.78855  -17.15383
       O    -8.71912  -16.79902  -17.17973
      H1    -7.76426  -16.72198  -17.40423
       H    -5.79887  -16.96831  -17.89372
       O    -6.06958  -16.06324  -17.84410
      H1    -5.99176  -15.84279  -16.91685
       H   -10.77882  -17.39606  -12.87003
       O   -10.17724  -18.12683  -12.59392
      H1    -9.32813  -17.67831  -12.64209
       H   -14.39707  -17.60373  -13.50425
       O   -14.08590  -16.91063  -12.93159
      H1   -14.75241  -16.23293  -12.90051
       H    -7.42673  -12.58888  -18.10198
       O    -8.17018  -12.18303  -17.69870
      H1    -8.17901  -11.28427  -17.98027
       H   -13.02777  -15.26378  -10.19723
       O   -13.88063  -15.60930   -9.93188
      H1   -13.72923  -16.04591   -9.06335
       H   -10.78586   -8.42198  -15.63283
       O   -10.95127   -8.15798  -14.69320
      H1   -10.36165   -8.65688  -14.08171

