105
frame 5 | Written by MDAnalysis XYZWriter (release 2.4.3)
       H     9.16579    5.46414  -10.31527
       O     9.86412    5.56120   -9.68342
      H1     9.50684    5.34421   -8.83395
       H     8.20175    8.24376  -11.96654
       O     9.18162    8.39167  -11.68247
      H1     9.30889    8.72602  -10.78920
       H    12.34157    5.67531   -7.02482
       O    12.04862    4.79823   -6.74369
      H1    12.03195    4.88217   -5.79705
       H    12.54529    0.05043   -7.50128
       O    13.05529   -0.68163   -7.87821
      H1    12.91746   -0.56172   -8.87986
       H     8.66829   10.50265   -6.38943
       O     8.38719   11.34531   -5.98532
      H1     7.45442   11.21177   -5.84214
       H     4.04077    5.08920   -5.42027
       O     3.91715    5.89090   -5.95852
      H1     3.71200    5.63372   -6.87021
       H    14.49803    3.61939   -5.40559
       O    14.50867    3.90127   -4.47157
      H1    13.83579    4.60226   -4.47532
       H    11.01569    7.58792   -2.52072
       O    11.06513    7.57249   -1.56318
      H1    10.32885    6.94863   -1.33380
       H    12.34453    4.45312  -12.74644
       O    12.68203    4.56638  -11.87562
      H1    12.36846    5.40115  -11.59393
       H    10.28302    3.16893   -1.71609
       O    10.38738    4.11539   -2.00828
      H1    11.29407    4.19296   -2.25648
       H     9.61391    1.81846   -7.57977
       O     8.70514    1.49590   -7.82395
      H1     8.39842    2.17584   -8.41435
       H     4.96145    3.47036   -7.71925
       O     4.14060    3.06104   -8.13163
      H1     3.74348    2.69021   -7.33383
       H     6.99973    5.93188  -10.16021
       O     7.16642    5.25175  -10.85933
      H1     6.32296    5.13454  -11.35516
       H     9.64338    8.66808   -8.36760
       O    10.09753    9.03217   -9.16312
      H1    10.38470    8.16981   -9.58804
       H     8.27870    2.12839  -11.31884
       O     8.76295    2.10482  -12.21033
      H1     8.92743    3.03203  -12.29915
       H    13.77116    2.17377   -4.54998
       O    13.11949    1.47375   -4.88464
      H1    12.55826    1.40801   -4.07905
       H     5.51664    4.88971   -6.40584
       O     6.15440    4.43336   -6.89456
      H1     6.55357    3.77134   -6.29253
       H     9.04689    8.13346   -5.62933
       O     8.73954    8.48802   -6.48583
      H1     7.79055    8.56928   -6.32176
       H     6.48110    2.20010  -10.28708
       O     7.13769    2.79341   -9.89068
      H1     7.04831    3.68836  -10.30220
       H    11.84607    6.06038   -3.30354
       O    12.27534    5.81742   -4.12300
      H1    12.58855    6.63387   -4.52140
       H     9.00522    5.50287   -6.38563
       O     9.38491    4.92083   -7.04982
      H1    10.31067    4.77868   -6.83023
       H     6.73097    5.78757   -8.03313
       O     6.94262    6.66177   -8.35688
      H1     6.15475    7.13970   -8.09966
       H     7.58794    2.42002   -3.74968
       O     7.65109    2.06176   -2.84658
      H1     6.99024    2.48345   -2.25294
       H    11.36970    6.27432   -9.85035
       O    12.12641    6.85646  -10.00359
      H1    12.68455    7.09173   -9.23491
       H     8.76040   -0.42191   -8.16202
       O     8.99536   -1.32431   -8.41622
      H1     9.05412   -1.77221   -7.55786
       H    11.98661    1.51020   -6.45326
       O    11.52376    1.52210   -7.31352
      H1    12.21773    1.92644   -7.86107
       H     4.35206    8.17570   -9.34309
       O     4.44655    7.75488   -8.49118
      H1     3.78663    7.05793   -8.52811
       H     5.40724    7.92718   -5.83336
       O     6.15335    8.20259   -5.32399
      H1     5.83204    9.10820   -4.93086
       H     6.17935    7.58983   -2.30379
       O     6.64361    7.07952   -2.95440
      H1     6.38727    7.46802   -3.82400
       H    14.33183    3.75601   -7.63397
       O    15.01661    3.54440   -7.08380
      H1    15.13556    2.59733   -7.24572
       H    12.12897    3.15202   -9.40115
       O    12.98295    2.67941   -9.20255
      H1    12.96941    2.04633   -9.93612
       H    13.55235    7.90099   -7.38914
       O    13.56400    6.97804   -7.57842
      H1    14.50901    6.72255   -7.53302
       H     8.11523    2.00390   -6.37017
       O     7.86424    2.59126   -5.59094
      H1     8.50818    3.29711   -5.53863
       H     9.20240    6.86327   -3.96434
       O     9.64849    7.73307   -4.09267
      H1     9.12194    8.29221   -3.54763
       H     9.16706    4.54423   -3.27940
       O     8.66006    5.04003   -3.90895
      H1     7.94183    5.43122   -3.43577

