105
frame 3 | Written by MDAnalysis XYZWriter (release 2.4.3)
       H    -0.59168  -19.36945   19.11997
       O     0.27083  -19.64240   18.86546
      H1     0.73667  -18.94467   18.41170
       H    -5.94847  -18.05512   12.58598
       O    -5.44226  -18.02972   11.79806
      H1    -4.63253  -18.38968   12.19820
       H    -4.77158  -16.20827   15.37689
       O    -4.40737  -16.85629   14.76449
      H1    -4.24871  -16.23237   14.03160
       H    -8.20021  -14.28837   16.02461
       O    -7.57863  -15.00378   15.81629
      H1    -7.52720  -15.03288   14.84502
       H    -8.40030  -12.31673   10.66814
       O    -7.89599  -12.70903   11.35691
      H1    -7.11670  -12.21042   11.51843
       H    -6.40945  -17.82221   14.55185
       O    -7.12629  -18.02353   13.89878
      H1    -7.86389  -18.47614   14.32573
       H    -7.58128  -14.54296   12.38068
       O    -7.30785  -15.17382   13.00505
      H1    -7.59497  -15.99653   12.70234
       H    -1.18821  -16.53878   14.58425
       O    -1.63111  -17.32685   14.96213
      H1    -2.55496  -17.13923   15.02590
       H    -2.58334  -12.96355   18.80007
       O    -3.49524  -12.91050   18.58496
      H1    -3.46627  -12.40836   17.77102
       H    -1.01664  -16.56131   18.46874
       O    -1.79499  -17.17333   18.18532
      H1    -1.77292  -17.41467   17.27166
       H    -0.10180  -13.79627   19.11386
       O    -0.28044  -12.91060   18.86090
      H1     0.36676  -12.73548   18.14568
       H    -3.15636  -10.18232   12.76997
       O    -2.60642  -10.78296   12.22767
      H1    -3.12296  -10.83268   11.47499
       H    -7.27555   -8.59583   15.78586
       O    -6.65613   -7.91504   15.54464
      H1    -6.73340   -7.60774   14.62986
       H    -2.18071  -12.18254   13.17860
       O    -2.10533  -12.99599   13.69984
      H1    -2.75157  -13.58452   13.32523
       H    -4.42609  -13.13352   16.06602
       O    -4.02399  -12.29629   15.79463
      H1    -3.34088  -12.55575   15.12947
       H    -2.77566   -9.18498   16.49930
       O    -2.93142   -9.45788   17.41085
      H1    -2.11481   -9.30772   17.93960
       H     0.87827  -11.01264   15.95117
       O     0.13139  -10.92056   15.31562
      H1    -0.42322  -11.69176   15.49007
       H    -5.36614   -8.73519   18.91361
       O    -6.34009   -9.04804   18.86320
      H1    -6.22433   -9.79773   18.24957
       H    -8.96991  -16.92584   18.00204
       O    -8.92536  -17.02888   17.03692
      H1    -8.36288  -16.34283   16.67863
       H    -4.43898  -14.67452   11.97910
       O    -4.60582  -14.91964   12.91221
      H1    -5.56925  -15.23951   12.81058
       H    -8.80884  -19.92928   17.08442
       O    -9.59334  -19.59070   16.65783
      H1    -9.44623  -18.66451   16.75179
       H     0.96230  -15.71088   19.94984
       O     0.42648  -15.57373   19.13112
      H1     0.98886  -15.62399   18.34378
       H    -5.19564  -12.28795   12.69169
       O    -5.41803  -11.53872   12.14401
      H1    -5.81659  -10.88185   12.72181
       H   -10.14394  -13.02835   16.66485
       O    -9.39563  -13.22633   17.19239
      H1    -9.77310  -13.54104   17.99637
       H   -11.75836  -16.04992   16.04975
       O   -11.62788  -16.53183   16.93315
      H1   -10.65150  -16.50430   16.89459
       H    -1.11584  -14.48257   13.45267
       O    -0.86048  -15.25510   12.97263
      H1    -1.18958  -15.22643   12.06983
       H    -5.56255  -11.51737   15.40054
       O    -6.33783  -11.14308   14.98621
      H1    -6.99562  -11.07463   15.67613
       H    -4.64287   -9.70772   14.86612
       O    -3.89458   -9.12857   14.55046
      H1    -4.12094   -8.28038   14.99888
       H     1.91721  -16.10625   16.51854
       O     1.73663  -15.13077   16.55301
      H1     1.51664  -14.89224   15.59188
       H    -4.92941  -14.70499   17.68099
       O    -5.18384  -14.53443   16.75027
      H1    -6.14033  -14.66818   16.50814
       H    -3.35710   -7.96946   18.51848
       O    -3.97202   -7.23020   18.82955
      H1    -3.34436   -6.66288   19.32728
       H    -7.27876  -18.57749   19.26965
       O    -7.95799  -19.02733   19.76255
      H1    -8.78483  -18.67817   19.44732
       H    -2.57305  -18.33378   13.29851
       O    -2.95898  -18.94708   12.69144
      H1    -2.66974  -19.84576   12.96729
       H     1.26275  -19.70486   14.61410
       O     0.90040  -19.36070   15.45420
      H1     0.21723  -18.75423   15.15045
       H    -7.99560  -12.25733   17.46724
       O    -7.17046  -11.69810   17.67241
      H1    -6.52737  -12.27768   18.11005

