105
frame 10 | Written by MDAnalysis XYZWriter (release 2.4.3)
       H   -14.76146  -12.55040   -0.30355
       O   -14.78673  -13.04252   -1.14482
      H1   -15.69692  -12.84823   -1.49288
       H   -17.21224  -12.00443    0.34633
       O   -17.29981  -11.11802   -0.02879
      H1   -16.90139  -10.55483    0.65015
       H   -18.07084  -19.66268    5.50250
       O   -18.46482  -18.90140    5.95946
      H1   -18.34976  -19.14866    6.88855
       H   -11.74147  -19.28638   -4.55715
       O   -11.37818  -20.05463   -5.04184
      H1   -11.89204  -20.07446   -5.86215
       H   -17.32296  -19.63957   -5.37441
       O   -16.90062  -18.77218   -5.12015
      H1   -17.63079  -18.20622   -4.88348
       H   -17.33675  -15.84822    8.28777
       O   -18.09068  -16.40727    8.22034
      H1   -18.46103  -16.09818    7.34970
       H   -17.55957  -15.66253   -7.40657
       O   -16.75976  -15.50988   -6.95762
      H1   -16.96382  -15.80492   -6.03262
       H   -18.24405  -14.84739   -3.74664
       O   -19.09386  -14.39437   -3.50002
      H1   -19.63270  -15.00576   -2.98719
       H   -17.08752  -15.39057    3.92968
       O   -17.41546  -14.59012    3.50944
      H1   -16.74409  -13.89690    3.66899
       H   -16.72459  -18.95939    0.92683
       O   -15.79287  -18.86797    0.74648
      H1   -15.41025  -18.60573    1.66591
       H   -11.69482  -19.27409    1.05080
       O   -12.52925  -19.26611    1.52876
      H1   -12.36989  -19.89641    2.25621
       H   -15.40161  -18.26902    3.78598
       O   -14.79443  -18.48141    3.11596
      H1   -14.51966  -19.36164    3.15111
       H   -12.47953  -19.04083    6.82289
       O   -11.84115  -18.32507    6.90110
      H1   -11.80079  -17.80699    6.02900
       H   -15.39206  -18.48575   -6.31130
       O   -14.67320  -18.29725   -6.88700
      H1   -14.47015  -17.33978   -6.70401
       H   -19.39529  -16.95815   -5.98246
       O   -19.28389  -17.34359   -5.02951
      H1   -19.72850  -16.70286   -4.48554
       H   -13.24301  -12.79287    1.78331
       O   -14.04195  -12.96806    1.29579
      H1   -13.98184  -13.88009    1.14627
       H   -11.43302  -17.14911    2.15643
       O   -10.50952  -17.10484    2.31768
      H1   -10.06933  -16.61343    1.56300
       H   -11.09162  -16.47421    4.08399
       O   -11.44954  -16.40893    4.94633
      H1   -10.72089  -16.05976    5.45021
       H   -18.08472  -14.10153    1.47003
       O   -18.00834  -13.77068    0.55318
      H1   -18.87398  -13.95661    0.17733
       H   -17.94245  -13.11385   -2.80023
       O   -17.18748  -12.58396   -2.54415
      H1   -17.53554  -11.85799   -1.98407
       H   -16.93779  -15.86055    0.28480
       O   -17.20026  -16.65359   -0.17760
      H1   -16.61950  -17.35238    0.15757
       H   -15.13477  -13.20102   -4.37940
       O   -14.60611  -13.79773   -3.82778
      H1   -14.66536  -13.55312   -2.90255
       H   -14.63426  -16.75994   -2.01065
       O   -15.00491  -17.17682   -2.80953
      H1   -15.18909  -18.10826   -2.48355
       H   -14.74883  -16.01740    6.82969
       O   -15.51991  -15.75651    6.33028
      H1   -15.78322  -14.92865    6.74147
       H   -17.98154  -17.59855   -1.55197
       O   -18.21823  -18.39986   -2.08133
      H1   -17.45719  -18.57834   -2.65104
       H   -17.56790  -17.60882    4.87639
       O   -16.82846  -17.11011    4.43628
      H1   -16.20598  -16.94330    5.12655
       H    -8.84908  -16.87117   -0.27506
       O    -9.45586  -16.12085   -0.11680
      H1   -10.14650  -16.21629   -0.75108
       H   -19.18806  -16.92878    0.20753
       O   -19.76913  -17.62287    0.51317
      H1   -20.36488  -17.82251   -0.23988
       H   -13.40016  -17.66187   -3.52294
       O   -12.63095  -17.67589   -4.07004
      H1   -12.88778  -17.27640   -4.84943
       H   -14.32018  -13.79127    3.70905
       O   -13.98839  -14.52224    4.20194
      H1   -14.73553  -14.64536    4.81792
       H   -12.01575  -15.76707   -1.63246
       O   -11.37855  -15.91112   -2.32483
      H1   -11.90156  -16.56378   -2.83730
       H   -13.75467  -16.94833    2.36974
       O   -13.36640  -16.09167    2.09130
      H1   -13.47871  -15.76589    2.99912
       H   -16.07263  -14.83891   -3.96405
       O   -16.70559  -15.49730   -4.13496
      H1   -16.34987  -16.23216   -3.54441
       H   -14.02476  -14.53277   -0.59222
       O   -13.55320  -15.31453   -0.44470
      H1   -13.42879  -15.46527    0.48307
       H   -14.19785  -15.44929   -5.05223
       O   -13.73973  -15.87782   -5.79726
      H1   -13.31432  -15.13374   -6.30722

