108
frame 7 | Written by MDAnalysis XYZWriter (release 2.4.3)
       H    -6.56208   10.19022  -18.22778
       O    -7.17024   10.84512  -18.69507
      H1    -7.26876   11.50930  -18.03592
       H   -13.22249   19.21636  -17.76464
       O   -12.47193   18.90499  -18.26025
      H1   -11.79632   19.54218  -18.00127
       H    -7.62536   11.65614  -12.71358
       O    -7.71728   12.60386  -12.79470
      H1    -7.99632   12.98220  -11.90344
       H    -3.62210   14.28865  -15.46080
       O    -2.93765   14.92623  -15.57025
      H1    -3.31108   15.45976  -16.28476
       H    -3.28141   16.26665  -12.83324
       O    -3.48388   17.01212  -13.40623
      H1    -3.00464   16.83424  -14.25593
       H    -9.44819    8.92807  -16.80850
       O    -8.91242    9.70000  -16.68504
      H1    -8.50200   10.01433  -17.53544
       H    -1.92407   17.45934  -17.39822
       O    -1.05256   17.42557  -16.98209
      H1    -0.80032   16.48525  -17.00983
       H    -4.29715   17.20025  -17.97729
       O    -4.14042   16.29248  -17.60221
      H1    -4.31273   15.62529  -18.32998
       H    -6.53114   12.16900  -15.99145
       O    -5.86067   11.50309  -15.71313
      H1    -6.22357   10.59662  -15.59959
       H    -5.91107    8.04211  -17.75808
       O    -5.55651    8.94785  -17.98507
      H1    -5.37793    9.39169  -17.14642
       H    -1.34423   19.18771  -14.32751
       O    -1.93547   19.28556  -15.07594
      H1    -1.64127   18.68459  -15.77658
       H    -1.78651   13.49010  -13.80109
       O    -1.56551   13.87423  -12.93833
      H1    -0.68343   14.37928  -13.04164
       H    -2.71387    7.69344  -17.77005
       O    -2.60968    8.04583  -16.89830
      H1    -2.93203    9.00928  -16.99867
       H    -1.12174   10.10485  -14.16184
       O    -0.91231   10.83483  -14.74967
      H1    -1.73885   10.96092  -15.36085
       H   -11.57368   15.88131  -13.78428
       O   -11.63086   14.95642  -13.58047
      H1   -10.95411   14.32283  -13.94928
       H    -7.25774   18.71429  -19.51664
       O    -7.33846   19.47144  -18.92692
      H1    -7.44190   20.28165  -19.50492
       H    -3.68293   11.02608  -13.82022
       O    -3.47993   11.97008  -13.70148
      H1    -4.33340   12.42040  -13.85574
       H    -5.16046   17.04856  -13.31115
       O    -6.12702   16.96757  -13.26386
      H1    -6.39860   17.24241  -14.13810
       H    -5.84375   16.95057  -16.93080
       O    -6.66641   17.29411  -16.56314
      H1    -7.17043   17.55017  -17.31661
       H   -12.00176   17.37484  -17.55609
       O   -11.65709   16.48922  -17.23587
      H1   -12.25583   15.77813  -17.54174
       H     0.48900   11.77213  -19.30473
       O     0.78307   12.51767  -18.75790
      H1     0.08847   12.76438  -18.19959
       H   -12.43401   13.50388  -17.30971
       O   -13.24539   13.90526  -17.70142
      H1   -13.19856   13.60463  -18.62656
       H    -8.09753   15.81814  -15.64594
       O    -8.01965   14.97426  -15.11099
      H1    -7.13160   14.85933  -14.76825
       H   -10.26663   12.63335  -16.79512
       O   -10.65934   12.57974  -17.68024
      H1   -11.14232   11.76231  -17.73236
       H    -8.10658   13.38249  -17.74653
       O    -7.53725   13.23592  -17.04788
      H1    -7.85993   13.83717  -16.33050
       H    -3.41168   19.42176  -18.76165
       O    -3.60515   18.50645  -19.11875
      H1    -2.86405   18.20048  -19.67305
       H     0.12217   14.23268  -16.34278
       O    -0.59127   14.63764  -16.90738
      H1    -1.38451   14.69433  -16.33266
       H    -6.26450   13.68815  -13.20792
       O    -5.59177   14.14751  -13.71190
      H1    -5.49707   15.08531  -13.42097
       H    -6.73669    9.22818  -14.29301
       O    -6.64455    9.00786  -15.23365
      H1    -7.58182    9.03812  -15.58350
       H   -11.45194   17.22039  -15.47141
       O   -11.59277   17.80467  -14.70779
      H1   -12.55498   17.87401  -14.58099
       H   -10.09330   18.39763  -14.82101
       O    -9.19922   18.70303  -15.11787
      H1    -9.12909   19.58592  -14.73365
       H    -9.14694   12.80329  -14.29788
       O   -10.01864   12.73387  -14.70868
      H1   -10.42908   11.83951  -14.66628
       H    -9.56817   13.36160  -18.96875
       O    -8.67768   13.68997  -19.29645
      H1    -8.47042   12.98910  -19.90286
       H    -9.83168   19.30120  -16.54713
       O    -9.89899   19.65096  -17.46462
      H1    -9.02051   19.40086  -17.80554
       H    -3.20564   10.81700  -17.78917
       O    -3.17401   10.71161  -16.83055
      H1    -3.97902   11.09720  -16.45759
       H    -6.10426   14.93864  -19.46523
       O    -5.39986   14.31802  -19.12698
      H1    -5.66756   14.00203  -18.23651

