108
frame 10 | Written by MDAnalysis XYZWriter (release 2.4.3)
       H    -2.86918   10.51408    9.33595
       O    -2.30402   10.73327    8.59034
      H1    -2.49273   11.69523    8.52760
       H     2.07509    3.97919    4.95968
       O     1.67340    4.54495    5.63144
      H1     2.36882    5.24639    5.80206
       H    -1.16793    6.10876    5.36678
       O    -0.48029    6.51242    5.86750
      H1     0.27048    5.90458    5.73582
       H     7.29656    9.86635    4.10516
       O     7.88805    9.11781    3.92844
      H1     7.79113    8.93528    2.96238
       H     3.23133    6.43157    6.95989
       O     3.61358    6.09821    6.15293
      H1     4.02616    5.25552    6.43396
       H     0.14642    5.94872    1.18972
       O     1.10926    5.97385    1.34522
      H1     1.35680    6.90481    1.33262
       H     0.64981    9.05557    6.27567
       O     1.59780    8.96478    6.21510
      H1     1.90731    9.87142    6.38297
       H     1.73518   15.14225    7.01510
       O     2.18564   15.87600    7.38375
      H1     2.00645   16.64341    6.87279
       H     3.37365   11.92869    6.27356
       O     2.70972   11.42960    6.78137
      H1     3.06827   11.43866    7.66937
       H     0.19022    9.35040   11.00196
       O    -0.31385   10.18095   11.13556
      H1    -0.69950   10.45413   10.31428
       H     0.44033   13.77866    6.05687
       O     0.75208   13.52533    6.95699
      H1     1.33167   12.78635    6.85203
       H    -0.27315   14.27826    3.86339
       O     0.35858   14.58629    4.51431
      H1     0.01341   15.52630    4.72580
       H     7.11099    8.40578    6.78088
       O     6.72309    8.90970    7.49450
      H1     7.08734    9.83484    7.41507
       H     5.67543    7.84844    0.80602
       O     4.78925    7.59361    0.51508
      H1     4.29173    7.87132    1.30143
       H     3.66036    8.29838    3.15646
       O     2.98878    8.63665    2.57639
      H1     3.14760    9.59907    2.65964
       H     7.39546    6.18549    7.46538
       O     6.98935    5.81207    8.25461
      H1     6.13659    6.22047    8.39902
       H    -1.85699    4.80673    8.28125
       O    -1.93253    5.78875    8.24433
      H1    -1.37798    6.11491    7.48894
       H     5.91266   13.68152   10.75004
       O     5.79644   12.73477   10.96951
      H1     5.10589   12.52001   10.36732
       H    -2.29284   13.63562    6.68043
       O    -1.94132   13.53282    7.57135
      H1    -0.95567   13.47810    7.53149
       H    -1.36123    8.15061    2.76939
       O    -2.11894    8.28185    2.14722
      H1    -2.81469    8.72380    2.63263
       H     1.06785   14.11143   10.73069
       O     1.93697   14.03077   11.11835
      H1     2.25816   13.14647   10.96742
       H    -1.82339   10.98510    4.16917
       O    -1.69220   11.35225    3.26773
      H1    -1.95256   10.69651    2.57746
       H     1.94578    7.75435   10.40641
       O     1.87339    8.11624   11.33068
      H1     1.60600    7.33891   11.81055
       H     5.74053   10.82854    3.63711
       O     5.56816   10.82454    4.56927
      H1     5.18267    9.94175    4.61019
       H     2.19101   11.22931    2.83653
       O     2.94398   11.53676    2.32344
      H1     2.61057   11.72251    1.41656
       H     4.61535   13.35620    5.05789
       O     5.12807   13.21537    5.94893
      H1     5.33885   12.26785    5.79384
       H     3.57649    8.94603   11.87511
       O     4.20852    9.57311   11.68071
      H1     4.85003    9.60272   12.42932
       H    -2.40483   10.75491    6.87741
       O    -2.46379   10.63233    5.96240
      H1    -3.15614   11.28601    5.66883
       H     3.30182    7.38079    8.49937
       O     2.39865    7.13091    8.25603
      H1     2.13068    7.72951    7.55509
       H     0.79874    9.94231    4.18612
       O     0.71104   10.91509    4.16218
      H1    -0.21059   11.05860    3.87786
       H     1.14855    8.07570    3.63205
       O     0.20322    8.15225    3.68208
      H1    -0.03258    7.52767    4.39462
       H     4.23441    5.77032    9.68098
       O     4.70770    6.63121    9.51771
      H1     5.02625    6.93708   10.40460
       H     2.53179   10.99742    9.87021
       O     3.44037   11.34177    9.59211
      H1     4.05039   10.63033    9.72732
       H     4.50311    7.17480    4.73165
       O     5.11150    7.59301    4.09399
      H1     5.73372    6.82683    3.85775
       H    -3.12795    7.93892    7.64397
       O    -3.21010    8.16472    6.66639
      H1    -2.78387    9.02297    6.56145
       H     5.00720   13.81281    2.68907
       O     4.30439   13.72262    3.27803
      H1     3.91373   12.89510    2.96606

