108
frame 6 | Written by MDAnalysis XYZWriter (release 2.4.3)
       H    17.36090  -13.26182   -5.85357
       O    16.97363  -13.67990   -6.64015
      H1    16.98872  -12.92944   -7.25974
       H    17.83692  -16.64384   -8.15387
       O    18.53436  -16.09059   -8.53657
      H1    19.01259  -16.70634   -9.09666
       H    19.97811  -17.70880   -3.98389
       O    19.36124  -17.24410   -4.51491
      H1    18.55213  -17.10198   -4.03826
       H    17.27969  -18.66540  -11.86216
       O    17.91935  -17.90152  -11.96960
      H1    17.39435  -17.10989  -11.97246
       H    13.48074  -15.94749   -2.20987
       O    12.96911  -16.08820   -2.98327
      H1    13.41614  -16.62460   -3.63074
       H    14.25779  -17.34105   -5.41470
       O    13.43481  -17.91141   -5.53779
      H1    12.69717  -17.38087   -5.85327
       H    16.10267  -13.25244  -16.20123
       O    15.67395  -13.53327  -15.38906
      H1    16.19662  -14.25579  -15.07269
       H    15.57151  -16.15074   -6.44673
       O    15.88858  -16.87205   -5.89502
      H1    16.04392  -17.59439   -6.53311
       H    13.46213  -17.39485  -14.77209
       O    14.28847  -17.65868  -15.24708
      H1    14.01004  -18.45667  -15.65169
       H    10.68471  -12.69308   -8.53888
       O     9.76341  -12.54924   -8.74900
      H1     9.41866  -13.40967   -8.94743
       H    13.56730  -11.74903   -7.87965
       O    14.19166  -11.01785   -7.76822
      H1    15.04626  -11.35091   -8.19401
       H    18.32784  -15.82957  -13.44859
       O    17.43073  -15.52309  -13.62817
      H1    17.45389  -14.64751  -13.15298
       H    12.80667  -20.09658   -8.33293
       O    13.38415  -19.61034   -8.94285
      H1    12.87528  -18.75300   -9.01062
       H    13.57046  -14.02261  -11.33813
       O    13.05087  -14.19409  -10.54229
      H1    13.15123  -15.13633  -10.34705
       H    10.39747  -17.11297   -6.62942
       O    11.21370  -16.58021   -6.47529
      H1    11.02125  -15.72569   -6.17960
       H    13.82326  -19.60436  -10.73475
       O    14.15123  -19.43819  -11.61236
      H1    13.41918  -19.37714  -12.21055
       H    13.37719  -16.79098   -8.73444
       O    12.49809  -17.13869   -8.94904
      H1    11.98297  -16.88640   -8.21228
       H    14.13042  -14.33730   -5.68666
       O    14.48036  -14.64504   -6.56067
      H1    15.39122  -14.28930   -6.62856
       H     9.75107  -15.35956  -10.81677
       O     9.06437  -14.75442  -10.59566
      H1     8.35777  -15.32148  -10.31762
       H    19.22424  -13.18395   -9.81374
       O    19.26630  -14.01589  -10.35378
      H1    18.97620  -14.75216   -9.80229
       H    13.17561  -13.54416   -7.44014
       O    12.48338  -13.07963   -8.05128
      H1    12.78578  -13.47696   -8.91843
       H    13.16846  -14.36041   -3.64938
       O    13.37385  -13.68489   -4.27970
      H1    14.18605  -13.19090   -4.02196
       H    10.62075  -12.46434  -10.23834
       O    11.27748  -12.38724  -10.94153
      H1    11.82041  -13.17670  -10.80949
       H    12.88708  -12.76593  -13.38428
       O    13.50157  -13.47945  -13.49429
      H1    14.06678  -13.20020  -14.22393
       H    15.33576  -16.65623   -9.98206
       O    15.11348  -16.89996   -9.07566
      H1    15.43030  -17.80659   -8.96907
       H    19.30358  -11.31097   -8.23680
       O    19.88572  -12.00215   -8.52364
      H1    19.90736  -12.78150   -7.96151
       H    10.98472  -20.08595   -4.39273
       O    10.52797  -20.03483   -5.25070
      H1    10.07833  -19.13067   -5.23809
       H    17.00183  -11.04778   -8.90908
       O    16.48182  -11.79489   -9.20561
      H1    16.31108  -11.69003  -10.10968
       H    11.68152  -16.29081  -13.41685
       O    12.28919  -16.05350  -14.12802
      H1    12.65797  -15.20039  -13.82643
       H    18.14731  -13.26940  -11.62071
       O    17.77619  -13.05559  -12.47301
      H1    18.48281  -13.22325  -13.12966
       H    15.06042  -16.26070  -12.79621
       O    14.93244  -16.54873  -11.86012
      H1    14.87412  -17.50751  -11.91177
       H    16.47935  -16.68766   -4.14350
       O    16.94296  -16.53023   -3.31930
      H1    16.49722  -17.14360   -2.64018
       H    16.43328  -11.64395  -12.50213
       O    15.87511  -10.97346  -12.07979
      H1    15.53154  -10.41791  -12.81064
       H    16.54707  -19.66031   -7.82738
       O    15.81016  -19.05545   -7.62895
      H1    15.11107  -19.56461   -7.16488
       H    19.01416  -18.19823  -10.60968
       O    19.72123  -18.06085   -9.95287
      H1    19.49883  -18.69876   -9.23401
       H    11.35744  -17.05200  -10.34165
       O    10.75701  -16.74663  -11.06940
      H1     9.93594  -17.32620  -11.12869

