108
frame 7 | Written by MDAnalysis XYZWriter (release 2.4.3)
       H     4.55701   -2.48981   13.26429
       O     4.78280   -2.63041   12.32543
      H1     4.06787   -2.18480   11.82874
       H    -0.02991    2.92751   13.74610
       O    -0.60039    3.01076   14.49390
      H1    -0.03074    2.80978   15.26407
       H     0.96724   -1.12999   18.20639
       O     1.83037   -1.07534   17.79521
      H1     2.00878   -2.02751   17.53473
       H     1.37545   -6.84586   14.63005
       O     1.80898   -6.59603   15.46966
      H1     2.74059   -6.60338   15.24926
       H    -3.69400    2.83490   17.08582
       O    -2.77654    3.04783   17.29136
      H1    -2.60640    3.62297   16.51778
       H    -0.96957   -0.84526   13.62816
       O    -1.84163   -1.17251   13.87287
      H1    -2.45973   -0.38427   13.85808
       H     6.99406   -3.00073   15.53048
       O     6.00237   -2.79501   15.45123
      H1     5.57286   -2.89983   16.33463
       H     3.05563    3.87498   13.51640
       O     3.76178    3.18663   13.52098
      H1     3.84252    2.98980   14.43777
       H     4.97523    0.23132   16.46554
       O     4.96226   -0.30387   15.65670
      H1     5.48224   -1.10056   15.85353
       H     1.18061    1.45736   16.29606
       O     0.89298    2.29495   16.63710
      H1     0.32277    2.14148   17.43511
       H    -0.43392   -3.54227   14.29507
       O    -1.36729   -3.85567   14.06428
      H1    -1.93017   -3.06144   13.96694
       H    -1.44673   -4.99420   15.71306
       O    -1.33395   -5.83390   16.20633
      H1    -0.79816   -6.35135   15.60663
       H     2.67729   -1.36892   13.73789
       O     3.21664   -1.80367   14.39205
      H1     3.78234   -1.10863   14.84663
       H     1.62541   -0.03119   14.38066
       O     0.98009   -0.05889   15.10467
      H1     1.33957   -0.61198   15.82372
       H    -4.56166   -1.09511   19.18134
       O    -4.82368   -1.71436   19.88356
      H1    -4.76333   -2.59993   19.42603
       H     4.72666    0.64648   18.56456
       O     5.13318    1.29035   17.96244
      H1     6.08149    1.26040   18.16401
       H     6.69242   -3.08666   18.49738
       O     7.46887   -3.66919   18.55141
      H1     7.98592   -3.33014   17.78816
       H    -1.00476    0.18727   18.78353
       O    -0.72212   -0.69006   19.09629
      H1    -0.97248   -0.70447   20.03148
       H     7.65161   -5.02271   13.63793
       O     7.78359   -4.06584   13.69357
      H1     6.95666   -3.69632   14.00607
       H    -4.55273    0.60333   17.27494
       O    -4.00068    0.02325   17.83583
      H1    -3.61381    0.64232   18.54154
       H    -1.61479    2.90915   18.54830
       O    -1.02339    2.35345   19.08129
      H1    -0.39162    2.97087   19.55124
       H     4.53431   -7.21675   19.28114
       O     4.28761   -6.65454   18.54417
      H1     5.12775   -6.66379   18.04741
       H     2.47138    5.98761   18.15547
       O     2.28004    5.63992   17.24683
      H1     2.71970    4.71880   17.29101
       H     2.58221    2.95858   16.62522
       O     3.48564    3.28654   16.50338
      H1     4.09507    2.73743   16.93527
       H     2.11915   -3.31598   14.71089
       O     1.29999   -3.78402   14.82688
      H1     1.45638   -4.72352   14.97071
       H     6.27378   -0.53452   12.91308
       O     6.82307   -0.34886   13.65268
      H1     6.14197   -0.30632   14.40837
       H    -1.72438   -3.95836   20.07240
       O    -1.78721   -3.75425   19.13143
      H1    -1.68327   -2.82122   19.09815
       H    -0.29079   -4.75974   18.80865
       O     0.42598   -5.41436   18.70133
      H1     0.28773   -5.85665   17.83149
       H    -0.02554   -2.81642   11.87416
       O     0.37303   -1.92929   11.79538
      H1    -0.17999   -1.62739   11.07223
       H     8.97203    1.04574   18.54945
       O     8.22451    0.37759   18.48673
      H1     8.00930    0.43491   17.52374
       H     4.37422   -2.73706   18.40208
       O     5.06429   -2.15578   18.73305
      H1     4.62370   -1.82277   19.54072
       H    -5.36476   -2.07593   15.33491
       O    -5.27062   -2.25335   16.29383
      H1    -4.57889   -1.59282   16.55140
       H    -3.52130   -4.16479   18.25992
       O    -4.41028   -3.86161   18.27077
      H1    -4.59802   -3.45883   17.38239
       H    -2.11447    1.66305   14.23594
       O    -2.94015    1.26334   14.54753
      H1    -2.83769    1.12607   15.44806
       H     2.31146    1.36067   12.43359
       O     2.40979    0.46805   12.74336
      H1     2.02071   -0.05634   12.04076
       H     2.33586   -4.32398   17.97346
       O     2.47794   -3.76871   17.20438
      H1     1.80143   -3.82597   16.54495

