108
frame 9 | Written by MDAnalysis XYZWriter (release 2.4.3)
       H    13.24132    5.24002   15.63886
       O    13.01682    4.55939   16.23282
      H1    12.66434    3.91324   15.64430
       H    16.00598    6.86443   10.64890
       O    15.10450    7.19343   10.89286
      H1    14.61356    6.43030   11.24011
       H    18.56396    5.43559   12.17425
       O    19.35674    5.56380   12.71614
      H1    19.88589    4.77235   12.58107
       H    12.95788   17.59637   15.88668
       O    13.13437   17.34494   14.95972
      H1    13.86980   16.71790   14.94540
       H    16.66549   17.94275   14.23646
       O    17.29682   17.50752   14.87133
      H1    18.17117   17.91323   14.80377
       H    12.52400   12.84418   18.01589
       O    12.99729   13.37897   18.71435
      H1    13.58888   12.66888   19.12411
       H    18.21401   10.74226   12.77435
       O    18.32635   10.74820   13.73407
      H1    19.15579   10.26433   13.90229
       H    10.74096    9.46301   11.30462
       O    11.06388   10.34781   11.57889
      H1    11.33314   10.79551   10.78918
       H    18.18743    7.33247   10.29069
       O    17.60805    6.79969    9.80808
      H1    18.05473    6.92854    8.95372
       H    14.66710   10.77494   11.39362
       O    14.96407    9.98763   11.75401
      H1    14.69053    9.27624   11.15399
       H    13.80836    9.55079   12.96882
       O    12.88601    9.35766   13.24961
      H1    12.36405    9.82796   12.60024
       H    17.47898   14.50587    9.98305
       O    18.15690   15.20027   10.22469
      H1    17.69923   15.56882   11.00226
       H    11.30254   13.73566   16.21418
       O    11.44483   12.82291   16.47530
      H1    12.03306   12.53502   15.76931
       H    14.33795   14.97211   18.13402
       O    14.88451   15.68932   18.44214
      H1    14.17256   16.38924   18.63823
       H    15.32367    8.65157   17.61530
       O    15.64485    7.77081   17.54960
      H1    15.70682    7.55160   16.59675
       H    16.77691    4.96916   19.45533
       O    17.15725    5.85190   19.13573
      H1    16.34955    6.43246   18.88296
       H    16.53659   17.71301   16.56645
       O    16.12898   17.84700   17.46378
      H1    15.62875   17.05371   17.65214
       H    16.95346   12.14577    9.78248
       O    16.71067   12.87008    9.22225
      H1    17.02473   12.74965    8.29349
       H    19.49517   13.74620   14.17215
       O    18.65537   13.33518   14.09838
      H1    18.77972   12.38862   13.85531
       H    14.37613   11.93659   14.72681
       O    13.42213   11.89427   14.56046
      H1    13.14759   10.98388   14.54932
       H    15.14026   12.28494    8.77826
       O    14.26844   11.96496    8.54536
      H1    14.46317   11.10882    8.04701
       H    17.65108   14.89073   16.54954
       O    17.03944   14.25583   16.86998
      H1    16.34485   14.72814   17.32734
       H    15.84354   15.51892   12.16969
       O    14.87688   15.37643   12.06488
      H1    14.75353   14.45503   11.83936
       H    17.59480   11.55972   18.74261
       O    16.72381   11.15521   18.55488
      H1    16.58084   11.50061   17.63696
       H    18.14526   13.78943   18.13197
       O    18.51613   13.22688   18.88979
      H1    18.62756   13.89926   19.61765
       H    18.31084   10.27281   10.77903
       O    17.60746   10.96071   11.00519
      H1    16.80852   10.42519   11.11115
       H    13.59183   16.81654   11.71351
       O    13.01831   17.38486   11.20580
      H1    13.45641   17.40714   10.38093
       H    14.55551   14.80813   14.05907
       O    14.72042   14.87560   15.01213
      H1    15.69181   14.87499   15.07435
       H    17.80877    7.42832   16.06556
       O    18.67734    7.76799   16.43893
      H1    18.50242    8.21634   17.29878
       H    11.74885    7.09661   15.04620
       O    12.40381    6.76476   14.37154
      H1    12.75488    7.60389   14.06707
       H    17.04213    5.52111   14.86904
       O    16.56579    6.31820   15.14281
      H1    16.61456    6.88077   14.32194
       H    17.12371   11.41101   15.11501
       O    16.40087   11.65333   15.69729
      H1    16.63656   12.52651   16.01843
       H    12.59882   13.21853   11.61863
       O    13.46420   12.84086   11.88865
      H1    13.41564   12.59545   12.82987
       H    17.52983   16.28165   13.49103
       O    17.46238   15.62618   12.74842
      H1    17.71606   14.76708   13.14065
       H    16.34749    8.63411   12.71916
       O    17.14918    8.18851   13.11838
      H1    17.69108    8.94196   13.28020
       H    17.30848    9.18235   18.76990
       O    18.10365    8.66673   18.99720
      H1    17.81810    7.74102   18.79734

