108
frame 2 | Written by MDAnalysis XYZWriter (release 2.4.3)
       H    -5.73883  -17.57945   11.24295
       O    -5.75934  -16.88867   10.61775
      H1    -5.78536  -17.23177    9.73678
       H    -0.75130  -18.32246   18.84039
       O     0.15366  -18.60289   19.10230
      H1     0.74205  -18.52477   18.33029
       H    -5.96342  -18.08332   13.29599
       O    -5.44412  -18.77041   12.89845
      H1    -4.52792  -18.64892   13.06609
       H    -4.46680  -15.60968   15.02750
       O    -4.35154  -16.28132   14.38311
      H1    -4.49047  -15.90762   13.51311
       H     0.66999  -12.26809   11.58412
       O     0.29534  -12.89874   10.93764
      H1     0.13761  -12.39508   10.11907
       H    -8.43214  -14.36783   16.36944
       O    -7.73845  -14.84377   15.86184
      H1    -7.56433  -14.23809   15.15289
       H    -8.32780  -17.79974   13.88723
       O    -7.63566  -17.29323   13.45833
      H1    -7.93705  -17.35055   12.57161
       H    -8.21007  -13.70103   12.49662
       O    -7.63528  -14.22620   13.07034
      H1    -7.94372  -15.13874   12.97340
       H    -1.21822  -16.49078   14.79303
       O    -1.85164  -17.20667   14.59471
      H1    -2.73628  -16.82030   14.45512
       H    -1.67904  -15.52529   17.54762
       O    -2.46321  -15.85759   17.19728
      H1    -2.20224  -16.26935   16.38836
       H     0.09270  -13.41516   18.71965
       O    -0.04200  -12.42403   18.59087
      H1     0.41395  -12.32411   17.74450
       H    -3.44324  -10.60299   11.81041
       O    -2.74279  -11.09734   11.33846
      H1    -3.28818  -11.64726   10.69132
       H    -2.52559  -12.14889   12.69178
       O    -2.47622  -12.92495   13.28992
      H1    -3.34399  -13.30256   13.25582
       H    -4.07485  -12.55957   15.77665
       O    -3.60854  -11.71299   15.67275
      H1    -3.11148  -11.84615   14.88167
       H    -4.35826  -15.89608    9.95618
       O    -3.84705  -15.02274    9.99023
      H1    -2.87307  -15.17392   10.02929
       H    -2.17908  -17.23832   20.16327
       O    -2.51636  -17.68229   19.31685
      H1    -2.54250  -17.00674   18.68832
       H     0.08701  -11.73078   15.46361
       O    -0.34421  -11.37299   14.69902
      H1    -0.97488  -12.01470   14.39833
       H    -8.37985  -16.63383   18.50129
       O    -7.71829  -16.96074   17.82927
      H1    -7.60274  -16.30822   17.19249
       H    -4.75821  -14.29835   11.54177
       O    -4.92980  -14.00412   12.45770
      H1    -5.93749  -14.16115   12.48821
       H    -7.62711  -18.75160   10.82526
       O    -8.44320  -18.25316   10.53695
      H1    -7.99525  -17.56486   10.02322
       H    -6.27844  -18.90669   18.36642
       O    -6.52372  -19.86020   18.37893
      H1    -5.90503  -20.14641   19.10032
       H    -3.31477  -19.22551    8.89401
       O    -3.42099  -18.27167    8.85219
      H1    -2.54757  -17.94320    8.51970
       H     0.24701  -15.79198   19.29967
       O     0.10913  -15.40374   18.45257
      H1     0.83710  -15.75818   17.92087
       H     2.06041  -19.31511   12.12241
       O     2.90373  -18.83747   11.88854
      H1     3.33325  -19.39051   11.18860
       H    -0.87390  -13.85049   13.15614
       O    -0.33907  -14.65041   13.25170
      H1    -0.51390  -15.23240   12.53065
       H    -1.14478  -19.00716   11.33277
       O    -0.24970  -19.08530   10.97599
      H1    -0.20251  -18.41010   10.21816
       H     2.75631  -15.05281   13.46258
       O     2.33811  -14.32013   13.97056
      H1     1.39460  -14.28096   13.64320
       H     1.97358  -17.17843   16.19318
       O     1.94847  -16.23551   16.08161
      H1     2.32722  -16.02449   15.21944
       H     2.58630  -15.53589   10.27210
       O     2.38844  -16.49356   10.16020
      H1     2.38036  -17.03859   10.94699
       H    -5.21174  -14.30926   19.73456
       O    -5.31030  -13.54160   19.13122
      H1    -4.43039  -13.14568   19.15151
       H    -4.89173  -13.88678   17.41642
       O    -5.15250  -13.78582   16.48588
      H1    -6.04974  -14.08358   16.50043
       H    -2.04098  -18.71494   13.16361
       O    -2.62563  -19.14578   12.53080
      H1    -2.61845  -20.08449   12.73258
       H     2.79912  -18.43737   17.52124
       O     2.09505  -18.82157   16.95822
      H1     2.44889  -19.63622   16.54761
       H    -0.39918  -19.82332   14.96775
       O    -1.04499  -19.96722   15.67253
      H1    -1.72880  -19.25875   15.71079
       H    -0.01572  -15.91049   10.47069
       O    -0.82451  -15.53950   10.82672
      H1    -0.78186  -14.58858   10.83918
       H     1.58850  -13.39764   15.75777
       O     1.34048  -12.58619   16.24086
      H1     2.10528  -12.04355   16.29628

