108
frame 3 | Written by MDAnalysis XYZWriter (release 2.4.3)
       H   -16.09457   12.10222   12.39015
       O   -16.97031   11.94508   12.74615
      H1   -17.57138   12.42074   12.16516
       H    -8.96521   14.65121   14.54224
       O    -8.08753   14.32413   14.34190
      H1    -8.23218   13.38506   14.54097
       H    -9.09783   14.29160   17.57767
       O    -9.16409   15.12989   17.15169
      H1    -8.96799   15.77329   17.83087
       H   -14.57736   12.30573   15.78378
       O   -13.96426   12.20946   15.07326
      H1   -13.68439   13.03700   14.77430
       H   -12.78359   14.82137   16.51355
       O   -13.02710   15.21585   15.68678
      H1   -14.00268   15.28786   15.66764
       H    -7.14724   17.85000   11.71400
       O    -7.54347   17.17535   12.20877
      H1    -7.04054   16.39821   11.97228
       H   -10.27527   16.42671   10.25114
       O    -9.38655   16.58776    9.90554
      H1    -8.85872   16.86263   10.65675
       H   -13.03634   16.60781    8.03960
       O   -12.60919   17.35680    8.44957
      H1   -12.35513   17.02727    9.31536
       H    -6.99004   14.47989   12.66109
       O    -6.49687   14.55692   11.79855
      H1    -6.96737   14.12124   11.09594
       H   -11.70418   10.84613   16.98064
       O   -11.50029   11.64863   16.40367
      H1   -12.31680   11.84885   15.98532
       H   -13.35272   11.05660   13.75302
       O   -12.99934   10.31439   13.21763
      H1   -13.85016    9.86445   13.13506
       H   -11.49421   13.46280   12.36405
       O   -12.09885   14.09529   12.72298
      H1   -11.60472   14.44429   13.44026
       H   -13.05397    8.74969   14.55009
       O   -13.00411    8.20014   15.39202
      H1   -13.83631    7.75402   15.38439
       H   -14.27913   14.66894    6.90870
       O   -14.58179   15.49789    7.31030
      H1   -15.33228   15.19296    7.85393
       H   -13.39332   10.40733   11.50504
       O   -13.73441   10.65194   10.65680
      H1   -14.60050   10.25662   10.62195
       H   -17.54950   12.71699   14.43162
       O   -17.93242   13.31227   15.14582
      H1   -18.20920   12.71958   15.85071
       H   -11.87338   15.72253   11.71795
       O   -11.86721   16.54413   11.25075
      H1   -11.45847   17.26321   11.76158
       H   -11.34198   16.69710   15.22249
       O   -10.42366   16.70906   14.86915
      H1   -10.00314   16.75280   15.74280
       H   -10.05008   11.16621   11.24976
       O   -10.34507   12.06726   11.54129
      H1   -10.57350   12.43925   10.66431
       H   -11.49920   13.10767   17.48251
       O   -11.71484   13.93849   17.96005
      H1   -10.97895   14.48963   17.62508
       H   -10.24133   15.71078    8.26286
       O   -10.35138   15.63401    7.31006
      H1    -9.48043   15.63274    6.93379
       H    -9.00744   10.10561   14.75239
       O    -9.89221    9.68760   14.78518
      H1   -10.38119   10.38592   15.30105
       H   -16.60691   14.59017   15.65127
       O   -15.95680   15.14692   16.04407
      H1   -16.45070   15.93911   16.21215
       H    -7.97600   17.72789   14.22540
       O    -7.80019   18.20294   15.00538
      H1    -8.64410   18.71916   15.15607
       H   -14.21867   12.25769   11.24280
       O   -14.71095   13.01288   11.70334
      H1   -13.94382   13.38679   12.22032
       H   -17.54525   15.85134   13.28554
       O   -18.46489   15.83759   13.11336
      H1   -18.73621   16.76834   13.18806
       H   -11.73138    9.25002   12.75294
       O   -11.22100    8.47993   12.41088
      H1   -10.34953    8.69334   12.68452
       H   -17.07249   14.14909    9.15585
       O   -16.27581   14.65110    9.25144
      H1   -15.81600   14.28892   10.02858
       H   -12.76895   12.83947    6.48854
       O   -13.57984   12.88699    6.99645
      H1   -13.67618   12.01774    7.32348
       H    -7.44418   12.94455    8.48437
       O    -7.45452   12.96320    9.45410
      H1    -7.59624   12.07779    9.73642
       H    -7.17623   14.62549    8.53549
       O    -7.33939   15.52864    8.31569
      H1    -8.14486   15.76481    8.84091
       H   -10.17220   11.84115    8.10907
       O    -9.80776   11.34307    7.35911
      H1   -10.10218   10.43126    7.46345
       H   -10.63757   18.07057   13.58667
       O   -10.53812   18.44946   12.69030
      H1   -10.97048   19.31198   12.79171
       H    -8.30648    9.66597   10.36320
       O    -9.27211    9.51990   10.50873
      H1    -9.49284    8.84705    9.89777
       H   -12.12084   13.06908    8.53274
       O   -11.16919   13.29226    8.53254
      H1   -11.13680   14.05642    7.95722
       H   -16.87419   11.22640   10.55559
       O   -16.37620   10.95287    9.77181
      H1   -15.90906   11.76541    9.42144

