108
frame 4 | Written by MDAnalysis XYZWriter (release 2.4.3)
       H     8.99794   -1.58653   -0.58750
       O     8.47513   -2.25656   -1.01400
      H1     9.11552   -2.99176   -1.17162
       H     9.07539  -13.28720   -0.58865
       O     8.78932  -12.91431   -1.42896
      H1     8.51218  -11.97369   -1.29064
       H    11.73496   -1.98249    0.03945
       O    11.65942   -2.10233   -0.96491
      H1    12.54283   -2.12559   -1.28691
       H     9.30972   -9.24491    6.74154
       O     8.41966   -9.45631    6.32695
      H1     8.54681  -10.05664    5.52442
       H    13.07414   -5.04824    3.93908
       O    13.79696   -5.25087    4.67174
      H1    14.47967   -5.73427    4.20194
       H    12.87439  -11.16621    1.03607
       O    12.37621  -10.57299    0.47118
      H1    11.95875  -11.16075   -0.22443
       H     6.09718   -7.04857    4.19119
       O     6.41913   -6.14689    4.32201
      H1     5.60684   -5.53450    4.21555
       H     7.09584  -10.14849   -1.53918
       O     8.01318  -10.30483   -1.38348
      H1     8.52773   -9.82011   -2.05233
       H     6.76197   -5.41303    2.56188
       O     7.43467   -5.09358    1.89448
      H1     6.94078   -4.47387    1.32332
       H     5.15222   -9.52880    2.50602
       O     5.56979  -10.28715    2.06666
      H1     6.52539  -10.07079    2.17373
       H    13.65744   -9.35655    3.16885
       O    14.42477   -9.11679    2.59825
      H1    15.06399   -8.58036    3.12767
       H    12.28937  -11.37329    4.00405
       O    12.10351  -10.41046    4.05307
      H1    12.38405  -10.19842    4.94911
       H     8.82889   -9.20515    1.55149
       O     8.33948  -10.02985    1.43269
      H1     8.35269  -10.03971    0.46166
       H    11.93914   -3.94383   -0.56647
       O    11.68908   -4.89664   -0.46132
      H1    12.30606   -5.40243   -1.08846
       H    11.70525   -7.53066    5.05852
       O    10.95615   -7.37042    4.45414
      H1    11.27677   -7.55062    3.55654
       H    12.13977   -1.96220    2.29713
       O    11.39168   -2.06539    1.70227
      H1    11.18590   -3.01984    1.97644
       H    14.11208  -10.09968   -0.63622
       O    14.80764   -9.82921   -1.27209
      H1    15.08199   -8.90837   -1.05811
       H     8.79510  -10.67298    3.28801
       O     9.31276  -11.12809    4.02286
      H1    10.14447  -10.64627    4.06605
       H     9.47622   -6.27979   -1.03463
       O     8.98697   -6.10388   -1.88495
      H1     9.12367   -7.00229   -2.22568
       H    12.41972   -9.55360   -3.87922
       O    13.18637   -9.08848   -3.57637
      H1    13.83175   -9.73153   -3.22297
       H    11.62531   -5.14811    2.24143
       O    11.59026   -4.52220    2.98383
      H1    10.74509   -4.68674    3.47472
       H     8.42554   -5.42724    4.02343
       O     9.23010   -5.16858    4.46003
      H1     9.65712   -5.97885    4.48911
       H    12.55580   -7.09004    6.89687
       O    13.06287   -7.56683    6.26366
      H1    13.37281   -6.88570    5.63196
       H    14.58342   -6.78222    1.16853
       O    14.08759   -6.16766    1.76445
      H1    14.24533   -5.36182    1.22502
       H     9.82538   -4.50214   -2.92894
       O    10.07230   -3.61097   -2.95835
      H1    10.80243   -3.44536   -2.31869
       H    13.29876   -7.08721   -2.75242
       O    13.30968   -6.11742   -2.72434
      H1    12.63578   -5.84743   -3.36809
       H     4.59914   -6.71244    0.04350
       O     3.87076   -6.53247    0.69767
      H1     3.75867   -5.58396    0.67075
       H    12.44895   -7.16945    1.54923
       O    11.73826   -7.81646    1.82115
      H1    12.16264   -8.63861    1.51995
       H    10.21543   -7.43835    0.84039
       O     9.29055   -7.46046    0.54559
      H1     8.91484   -6.71011    1.10296
       H    16.30624   -6.79087   -0.44839
       O    15.82658   -7.54160   -0.16471
      H1    16.42383   -7.98350    0.44013
       H     9.75758  -12.28365    2.13446
       O     9.76183  -13.07535    1.54121
      H1    10.66283  -13.03913    1.14944
       H     6.63321   -8.19944   -3.90451
       O     5.74689   -8.11262   -3.60669
      H1     5.79575   -7.84462   -2.67412
       H     5.79222   -5.71444   -1.48037
       O     6.07774   -6.55045   -1.18384
      H1     6.97915   -6.48518   -0.86779
       H    10.05522  -11.91217   -1.73899
       O    10.80809  -11.36247   -2.01622
      H1    10.92565  -11.57294   -2.95586
       H    10.23532   -9.41463   -2.73750
       O     9.44818   -8.98960   -3.13310
      H1     9.78548   -8.56367   -3.90850
       H     5.34659  -10.08116    0.23618
       O     5.29961  -10.26492   -0.69589
      H1     4.69274  -11.05740   -0.73773

