108
frame 0 | Written by MDAnalysis XYZWriter (release 2.4.3)
       H     5.99258  -18.07019   17.81967
       O     6.88670  -18.42877   17.75433
      H1     7.37724  -17.73732   17.33984
       H    -0.40736  -18.33121   18.50798
       O     0.28844  -17.91043   19.01638
      H1     1.06576  -18.34314   18.54202
       H    -5.35529  -18.79329   14.20414
       O    -5.13588  -19.65558   13.86180
      H1    -4.14643  -19.61594   13.92968
       H    -5.18912  -16.17514   14.63621
       O    -4.99292  -16.97221   14.20931
      H1    -5.03765  -16.62927   13.32666
       H     4.88715  -14.62605   19.60188
       O     5.71228  -14.91483   19.13918
      H1     5.54942  -14.71218   18.19460
       H    -2.28421  -16.03266   15.05410
       O    -2.54440  -16.89509   15.39640
      H1    -3.39573  -16.97579   14.89356
       H    -2.91489  -12.05982   18.52964
       O    -3.66344  -11.57345   18.89809
      H1    -3.90347  -11.07892   18.09181
       H    -1.89937  -15.49427   18.09965
       O    -2.84656  -15.79195   18.00452
      H1    -2.76859  -16.32803   17.11036
       H    -0.94826  -13.90687   19.31618
       O    -1.27618  -13.01805   19.33074
      H1    -0.88046  -12.71208   18.47121
       H    -3.76615  -13.19975   15.81342
       O    -3.62166  -12.21804   15.77834
      H1    -3.50320  -11.97543   14.84194
       H    -2.20536  -18.41512   20.05085
       O    -2.37373  -18.28108   19.07969
      H1    -2.53354  -17.33290   18.91054
       H    -0.93804  -10.72617   17.11617
       O    -1.05939  -11.65364   16.84890
      H1    -1.95255  -11.80792   16.44831
       H    -8.28159  -17.91949   17.46605
       O    -8.06167  -18.75544   18.00325
      H1    -7.11626  -18.77763   18.12051
       H     7.90801  -16.76078   15.43343
       O     8.21040  -16.20751   16.18926
      H1     7.54429  -15.53448   16.31074
       H    -0.28824  -11.66620   15.28001
       O     0.39119  -11.45512   14.57874
      H1     0.92586  -12.21425   14.37971
       H    -0.00872  -16.30976   19.02883
       O     0.04442  -15.35950   18.81409
      H1     0.80761  -15.15387   18.22120
       H     2.01314  -10.96362   16.14935
       O     2.88177  -11.33709   16.10728
      H1     3.38150  -10.87150   16.80231
       H     2.25503  -18.54754   12.39586
       O     2.64667  -17.90478   11.87275
      H1     3.49831  -18.32730   11.71743
       H     2.61199  -12.78988   18.38746
       O     3.02292  -12.42066   19.16337
      H1     2.34758  -11.89918   19.66052
       H     4.61923  -16.82277   19.09220
       O     4.40230  -17.72180   18.82451
      H1     4.48586  -18.22616   19.67879
       H    -1.80588  -13.73616   14.23636
       O    -1.56427  -14.65970   14.07684
      H1    -1.61161  -14.71341   13.15481
       H    -0.89585  -19.61041   11.74387
       O    -0.05876  -19.56272   11.32788
      H1     0.08224  -18.61275   11.26833
       H     1.33501  -15.16194   13.75339
       O     1.47126  -14.23391   13.49456
      H1     0.54459  -14.00822   13.19000
       H     2.50157  -17.23555   16.03182
       O     2.50754  -16.38086   15.55369
      H1     3.30154  -16.53321   14.96144
       H     1.98510  -15.15947   10.44572
       O     1.66437  -16.07753   10.25493
      H1     2.13336  -16.62711   10.89517
       H     3.27259  -13.93911   14.26871
       O     4.03961  -13.67419   14.82136
      H1     3.74424  -13.04464   15.47168
       H    -5.46383  -14.64989   19.58458
       O    -5.50708  -13.89549   18.98086
      H1    -4.72906  -13.32553   19.00647
       H     6.42144  -13.32770   16.84399
       O     6.12733  -14.23135   16.55398
      H1     5.46141  -14.05079   15.79482
       H    -4.43355  -14.85800   16.91039
       O    -4.64578  -14.82948   15.95830
      H1    -5.61383  -14.61761   15.90097
       H     6.60975  -18.62868   14.38167
       O     6.94934  -17.72619   14.20269
      H1     6.13292  -17.23458   13.92980
       H     3.07116  -18.22906   18.04157
       O     2.36080  -18.69495   17.47830
      H1     2.60935  -19.63395   17.51587
       H    -0.10502  -19.20310   14.99582
       O    -0.94920  -19.25360   15.43289
      H1    -1.22725  -18.29909   15.48397
       H     5.64860  -19.23583   11.67164
       O     4.75050  -19.59376   11.84223
      H1     4.39773  -19.70761   10.92967
       H     4.72744  -15.61551   13.18838
       O     4.50147  -16.45253   13.64684
      H1     3.97410  -16.99187   13.06316
       H     0.23677  -15.45398   10.88048
       O    -0.54047  -15.01612   11.25474
      H1    -0.14355  -14.14244   11.40614
       H     2.40768  -14.56377   16.59085
       O     1.74991  -14.02899   17.12160
      H1     1.66288  -13.32091   16.49227

