108
frame 8 | Written by MDAnalysis XYZWriter (release 2.4.3)
       H    -3.66345    4.37638   12.45404
       O    -3.08795    3.76184   11.98169
      H1    -3.33645    2.91373   12.36366
       H    -7.76121    1.57997   11.28663
       O    -7.00808    1.09820   11.56825
      H1    -6.55517    1.71369   12.13991
       H    -4.21453   -2.63242   11.74116
       O    -4.57948   -1.77185   11.96505
      H1    -3.79419   -1.30221   12.29924
       H     1.71169    3.44440    9.57125
       O     2.05492    4.17548   10.17468
      H1     2.74419    3.66348   10.63226
       H    -1.36021    3.25029   14.03932
       O    -1.47869    3.30097   15.01043
      H1    -0.62248    3.05600   15.40864
       H    -3.96300    3.08313   17.50799
       O    -3.26993    3.80909   17.45883
      H1    -2.93636    3.74411   16.56314
       H    -1.25367    5.20203    9.82109
       O    -1.51879    4.47364    9.32739
      H1    -2.43653    4.25592    9.44949
       H     3.56766    6.66399   15.09134
       O     4.34676    7.20184   15.33425
      H1     3.92476    8.09765   15.51023
       H    -1.77607   -0.22185   12.19592
       O    -2.22430   -0.53440   12.96560
      H1    -2.18228    0.10830   13.67708
       H     2.85943    5.11267   13.73873
       O     3.67888    4.60743   13.87268
      H1     3.55330    4.04478   14.70448
       H    -7.21267    1.45382   14.89462
       O    -6.83925    2.23575   15.25223
      H1    -7.60158    2.96009   15.19129
       H    -0.44205    7.64986   10.28838
       O    -0.53127    6.70504   10.54960
      H1    -0.97792    6.82184   11.40870
       H     0.52557    1.26295   16.35568
       O     0.61559    2.22187   16.58869
      H1     0.17894    2.39185   17.42906
       H    -0.23992   -3.31534   14.07403
       O    -1.07548   -3.12111   13.52095
      H1    -1.14646   -2.17571   13.48815
       H    -4.68086    6.08843   18.94177
       O    -4.27945    5.28650   19.26501
      H1    -3.99114    4.74799   18.49813
       H     2.70571   -0.90193   13.67888
       O     3.23265   -1.54629   14.20116
      H1     3.93691   -1.14434   14.70109
       H     0.24601   -0.48135   14.43766
       O     0.06853   -0.41917   15.37798
      H1     0.65210   -0.97544   15.87209
       H    -4.89954    6.03737   12.17470
       O    -4.91952    5.36119   12.81391
      H1    -4.33611    5.78388   13.46179
       H    -4.65447    0.54495    9.20320
       O    -3.82297    0.06191    9.33200
      H1    -3.88853   -0.32272   10.21406
       H    -2.09476    6.38301   18.09788
       O    -1.53862    6.84330   17.49706
      H1    -0.77450    7.16653   17.99541
       H    -1.73968    5.07110   15.01520
       O    -2.23882    5.94802   14.97898
      H1    -2.02406    6.44659   15.76762
       H     0.80407    7.10881   16.12401
       O     0.68811    7.63172   15.29722
      H1     1.35125    8.27612   15.34071
       H    -1.53414    3.44555   18.21271
       O    -0.85085    2.89524   18.64474
      H1    -0.46245    3.43321   19.31005
       H     0.84293    4.74207   16.99721
       O     1.65493    5.16829   16.99823
      H1     2.33898    4.51388   17.03116
       H     2.51131    2.71334   16.33576
       O     3.44717    3.01218   16.12103
      H1     3.99656    2.37640   16.65577
       H     1.28486    6.03125   12.41966
       O     1.85413    6.30000   13.09049
      H1     1.36985    6.70311   13.82637
       H     0.97205    1.80961    8.41772
       O     1.25492    1.45796    9.27081
      H1     2.07523    1.05676    9.11953
       H    -1.25081    0.07791   10.10076
       O    -1.00115    0.84750   10.63142
      H1    -0.14843    0.97870   10.26651
       H     0.77900   -1.05157   12.18030
       O     1.22788   -0.36060   12.68120
      H1     0.94411    0.53762   12.53143
       H    -2.16266    1.66374   15.28855
       O    -2.43105    0.74387   15.30215
      H1    -1.73852    0.25717   15.71058
       H    -1.84818    6.84872   13.43223
       O    -1.94866    7.26549   12.58212
      H1    -1.74146    8.18202   12.80597
       H     2.48386    3.17311   13.46693
       O     1.71487    2.54675   13.39784
      H1     1.01828    3.04528   12.93049
       H    -5.63753    1.86856   18.59911
       O    -5.11574    1.85165   17.78430
      H1    -5.74776    1.67750   17.10873
       H    -4.14663    1.40333   14.08943
       O    -4.70436    1.98287   13.57248
      H1    -5.48767    2.21584   14.16177
       H     0.13109    3.53397   10.99982
       O    -0.31534    3.52867   11.85453
      H1    -1.27175    3.53176   11.70143
       H    -4.20760    3.67501   10.62636
       O    -4.58607    3.66523    9.75559
      H1    -5.28731    2.98740    9.78937

