108
frame 5 | Written by MDAnalysis XYZWriter (release 2.4.3)
       H    -4.41434   -2.44229  -11.27056
       O    -3.53243   -2.78205  -11.03458
      H1    -2.98319   -2.05294  -10.81006
       H    -8.05522   -8.52750  -17.58099
       O    -8.06001   -9.43881  -17.94627
      H1    -7.45352   -9.50855  -18.74225
       H    -9.55593   -4.08680  -16.72569
       O    -9.72310   -4.96657  -17.16383
      H1    -9.94873   -4.59138  -18.04594
       H    -7.02955   -5.56694  -20.33515
       O    -7.51036   -5.36453  -19.53151
      H1    -6.98845   -5.82325  -18.84690
       H    -6.73174  -10.49128  -10.92352
       O    -6.52200   -9.69411  -11.38113
      H1    -5.60222   -9.83803  -11.53515
       H    -8.79752   -0.48134  -15.96187
       O    -9.74382   -0.61331  -15.90124
      H1    -9.94897   -0.72669  -16.84442
       H    -4.02124   -2.25652  -17.38991
       O    -3.64906   -2.80493  -16.62913
      H1    -4.26653   -2.55155  -15.99391
       H   -10.11991  -10.10585  -13.45294
       O   -10.90911  -10.50044  -13.83833
      H1   -10.67013  -11.32094  -14.23363
       H    -7.43632   -4.42537  -10.57509
       O    -6.80920   -4.74226   -9.89315
      H1    -7.09440   -5.60066   -9.67932
       H    -7.04755   -9.78368  -14.82329
       O    -6.37563   -9.97852  -15.51814
      H1    -6.70708   -9.53448  -16.30437
       H    -4.26818   -0.71048  -14.42464
       O    -4.95756   -1.41295  -14.56235
      H1    -5.36325   -1.63073  -13.66124
       H    -3.73957  -10.29044  -12.81060
       O    -4.06366  -10.60950  -11.96059
      H1    -3.57499  -10.08972  -11.32753
       H   -11.57700   -7.38766  -15.93830
       O   -11.61397   -6.48472  -15.59486
      H1   -11.02468   -5.92684  -16.15936
       H    -7.78719    0.75686  -12.77943
       O    -8.04808   -0.13486  -12.93601
      H1    -8.89520   -0.28718  -12.46428
       H    -7.62161   -2.97944  -17.49971
       O    -7.93533   -2.82056  -18.39976
      H1    -7.90727   -3.71838  -18.79828
       H   -10.11811   -6.89284  -10.60280
       O    -9.81906   -7.16709  -11.50698
      H1   -10.57796   -7.70898  -11.76305
       H    -6.50441   -2.50905  -11.79480
       O    -5.94370   -1.70672  -11.70345
      H1    -6.51720   -1.00980  -12.06635
       H    -8.02648   -9.97020  -12.75503
       O    -8.39379   -9.44679  -13.45999
      H1    -8.17425   -8.51136  -13.33649
       H    -7.14846   -8.32073  -10.23792
       O    -7.30619   -7.68562   -9.55716
      H1    -6.44952   -7.52333   -9.14106
       H   -11.57089   -3.61097  -13.11244
       O   -11.07592   -4.40273  -12.80585
      H1   -11.46832   -5.12960  -13.33094
       H    -9.55176   -2.26458  -14.99806
       O    -9.35926   -3.23020  -14.92995
      H1    -9.82483   -3.53391  -14.14248
       H    -3.78108   -6.01343  -15.69472
       O    -4.46184   -5.36276  -15.42079
      H1    -4.09617   -4.60198  -15.91834
       H    -9.51470   -2.21393  -18.45901
       O   -10.24229   -1.60248  -18.49996
      H1   -10.81245   -1.91143  -19.22449
       H    -7.48239   -7.31475  -16.63547
       O    -8.32468   -7.45349  -16.21659
      H1    -8.86480   -6.73794  -16.62767
       H    -1.58374   -7.27326  -15.44065
       O    -1.26742   -7.45886  -14.54941
      H1    -0.72008   -8.26206  -14.64046
       H    -4.54332   -9.34030  -14.74154
       O    -3.65506   -9.25403  -14.43491
      H1    -3.54462   -8.39124  -13.96933
       H    -4.44016   -6.69808   -9.33670
       O    -4.90887   -7.08261   -8.50460
      H1    -4.46870   -7.90805   -8.32560
       H   -12.45817   -8.59959  -13.19207
       O   -12.31959   -7.62620  -13.24881
      H1   -11.90788   -7.53142  -14.10160
       H    -1.47818   -4.45959  -18.88475
       O    -2.18078   -3.80060  -19.04785
      H1    -2.34244   -3.27968  -18.25264
       H    -3.51163   -4.54211  -10.46048
       O    -3.71742   -5.52176  -10.45275
      H1    -4.11151   -5.69948  -11.30056
       H    -4.81548   -6.15136  -13.36030
       O    -4.95528   -6.88731  -12.72361
      H1    -5.92936   -7.01413  -12.74265
       H    -8.90924   -3.91387  -11.40872
       O    -8.10522   -3.60634  -11.87730
      H1    -7.83867   -4.38921  -12.43657
       H    -7.77763   -3.08201  -15.43443
       O    -6.92701   -2.81789  -15.89289
      H1    -6.30797   -2.28711  -15.31289
       H    -5.58378   -5.81016  -16.77386
       O    -5.97556   -6.56614  -17.26712
      H1    -5.19383   -7.08838  -17.58016
       H    -6.65768   -5.22283  -14.47548
       O    -7.29812   -5.57124  -13.81657
      H1    -8.08447   -5.88520  -14.29275
       H    -2.24336   -7.88739  -17.20293
       O    -2.10784   -6.96359  -16.99273
      H1    -1.36763   -6.68612  -17.53262

