108
frame 0 | Written by MDAnalysis XYZWriter (release 2.4.3)
       H    -6.89018  -16.80739   11.44504
       O    -5.94213  -16.73653   11.39164
      H1    -5.61387  -17.34342   10.75272
       H   -10.49317  -15.75235   12.43743
       O   -11.30787  -15.36414   12.81452
      H1   -11.73240  -14.84968   12.10141
       H    -5.35529  -18.79329   14.20414
       O    -5.13588  -19.65558   13.86180
      H1    -4.14643  -19.61594   13.92968
       H    -5.18912  -16.17514   14.63621
       O    -4.99292  -16.97221   14.20931
      H1    -5.03765  -16.62927   13.32666
       H   -11.84301  -14.07578   16.67757
       O   -11.25358  -13.72363   17.38093
      H1   -11.52638  -12.80841   17.67661
       H    -5.94965  -17.72538    7.08327
       O    -5.43313  -17.24623    6.34812
      H1    -5.79332  -17.48754    5.43302
       H   -11.84447  -17.21328    6.92943
       O   -11.38550  -17.55676    6.21785
      H1   -11.64296  -17.23176    5.42140
       H    -7.76875  -14.25564   15.99183
       O    -7.30436  -14.91811   15.44732
      H1    -7.30216  -14.68043   14.52384
       H    -8.16917  -11.80755   10.59523
       O    -7.46616  -11.95151   11.27793
      H1    -7.59440  -11.41892   12.10428
       H   -12.84932  -11.12271    9.99125
       O   -12.12453  -11.59649   10.48050
      H1   -12.49642  -12.46410   10.72876
       H    -9.43168  -17.52026   12.39175
       O    -8.99366  -16.86037   11.87000
      H1    -9.40761  -16.93015   11.01257
       H    -7.57701  -13.40168   12.33256
       O    -7.80627  -14.27145   12.83776
      H1    -8.28282  -14.84750   12.20771
       H   -14.48472  -19.65423   17.64166
       O   -14.14376  -19.53162   16.74168
      H1   -13.61616  -18.73999   16.76615
       H    -2.28421  -16.03266   15.05410
       O    -2.54440  -16.89509   15.39640
      H1    -3.39573  -16.97579   14.89356
       H   -12.83029  -15.26884    8.48695
       O   -12.15221  -15.83929    8.92322
      H1   -12.62555  -16.45675    9.52132
       H   -13.61827  -11.66476   14.94317
       O   -13.29832  -12.30967   14.35236
      H1   -12.31676  -12.14795   14.30311
       H   -12.47011  -17.40092   12.77263
       O   -12.42412  -17.83631   13.66884
      H1   -11.61829  -17.44726   14.06156
       H    -9.57606  -15.97295   17.18778
       O    -9.12751  -16.52481   16.61147
      H1    -8.41420  -15.88320   16.17978
       H    -4.37453  -14.98520   11.49551
       O    -4.66976  -14.38141   12.19517
      H1    -5.53636  -14.61437   12.42331
       H   -15.43815  -15.91316   11.52766
       O   -15.47978  -14.93792   11.69382
      H1   -15.92239  -14.89089   12.61617
       H    -8.86551  -17.04144    8.87116
       O    -9.72680  -17.38406    9.10473
      H1   -10.35783  -16.62722    8.93639
       H   -13.08065  -19.04660    7.65951
       O   -13.95274  -18.91050    7.22719
      H1   -13.72768  -19.19789    6.29357
       H    -8.28159  -17.91949   17.46605
       O    -8.06167  -18.75544   18.00325
      H1    -7.11626  -18.77763   18.12051
       H    -9.45869  -19.11188   14.65150
       O    -9.66741  -18.21879   14.46910
      H1    -9.32346  -17.55771   15.07206
       H    -7.37101  -19.23406    7.65212
       O    -7.06597  -18.47213    8.26092
      H1    -6.59766  -18.86807    9.02501
       H    -8.85981  -12.65302   15.37770
       O    -8.66829  -12.79082   16.28178
      H1    -9.43298  -13.31194   16.59917
       H   -13.14472  -14.08904   14.95154
       O   -12.62645  -14.79503   15.25623
      H1   -12.04394  -15.00584   14.50504
       H    -9.69498  -16.87771    6.35969
       O    -8.95715  -16.29667    6.21174
      H1    -8.54860  -16.72060    5.44785
       H   -12.69643  -14.58372   10.32772
       O   -12.89600  -14.07376   11.08187
      H1   -13.75394  -14.36605   11.43534
       H   -14.32284  -16.37968   17.28381
       O   -13.44388  -16.73641   17.25811
      H1   -13.16243  -16.34782   16.41100
       H    -9.26828  -13.49215    9.30113
       O    -9.01952  -14.40494    9.58308
      H1    -8.31796  -14.63410    8.96535
       H   -10.09736  -11.17734   12.76184
       O   -11.03398  -11.25799   13.08324
      H1   -11.49356  -11.04305   12.23672
       H    -4.43355  -14.85800   16.91039
       O    -4.64578  -14.82948   15.95830
      H1    -5.61383  -14.61761   15.90097
       H   -12.44117  -18.63814   10.48974
       O   -12.96898  -17.91169   10.88885
      H1   -13.84350  -18.32459   10.76885
       H    -7.60285  -15.46104    7.08549
       O    -7.08880  -14.81667    7.59961
      H1    -6.15920  -15.07442    7.63365
       H   -16.84424  -17.38076   10.74766
       O   -15.96032  -17.79141   10.95454
      H1   -16.11277  -18.76485   11.12999

