108
frame 3 | Written by MDAnalysis XYZWriter (release 2.4.3)
       H     2.07039   18.53745   -7.72598
       O     2.05131   17.80796   -8.37764
      H1     2.94319   17.59730   -8.47668
       H    -2.71524   17.59784   -3.65696
       O    -3.04064   17.34228   -2.78799
      H1    -2.79633   18.03361   -2.18144
       H     0.90519   12.38254   -6.85399
       O     1.81720   12.04670   -6.96331
      H1     2.40465   12.79876   -6.90724
       H     7.92983   15.36108  -12.58202
       O     7.07872   15.14749  -12.15115
      H1     6.89929   15.89379  -11.54190
       H     1.65399   16.47703  -12.36978
       O     1.36096   15.70407  -11.85248
      H1     0.87382   16.12509  -11.14983
       H    -1.30377   18.94258  -11.83894
       O    -1.16074   19.10168  -10.87276
      H1    -2.02447   19.14958  -10.45816
       H    -2.13554   17.89402   -6.14425
       O    -1.59029   17.31611   -5.57071
      H1    -0.96308   17.89903   -5.11958
       H    -0.06714   13.64406  -12.70229
       O    -0.95303   13.70520  -12.43876
      H1    -0.94841   14.22245  -11.64194
       H     5.15036   15.31361   -3.10547
       O     5.40031   16.12796   -2.56635
      H1     5.81365   16.68633   -3.26623
       H     6.03854   16.11007   -8.02520
       O     6.45552   15.76452   -8.80278
      H1     7.36096   15.60950   -8.45517
       H     2.99082   17.14981   -1.18712
       O     2.89711   17.11522   -2.17494
      H1     3.76628   16.69294   -2.46499
       H     0.19487   14.51025   -7.25969
       O     0.67119   14.71676   -8.07216
      H1     1.56267   14.88738   -7.76265
       H     3.77415   18.15880  -11.95183
       O     3.97389   18.55719  -11.07015
      H1     3.28494   18.16482  -10.47169
       H    -1.09097   12.19121   -5.13400
       O    -0.86218   12.49124   -6.03972
      H1    -1.73763   12.49996   -6.49648
       H     2.34247   17.26535  -14.40095
       O     2.62398   17.85427  -13.57426
      H1     2.53880   18.75558  -13.94903
       H     4.24782   17.48341   -6.49992
       O     4.66422   16.93271   -7.15371
      H1     4.14020   16.02637   -7.06363
       H     6.13104   17.11500  -10.01894
       O     6.48254   17.83138  -10.61826
      H1     5.66720   18.29255  -10.82402
       H     8.24077   18.82257   -7.25014
       O     8.31935   18.01810   -6.70061
      H1     8.57007   17.20449   -7.15867
       H     1.05026   11.21467   -9.34029
       O     0.71546   11.96112   -9.87481
      H1     0.99011   12.73044   -9.37332
       H     0.36187   19.46223   -4.90800
       O    -0.13788   19.05781   -4.25948
      H1    -0.81974   19.68210   -4.02034
       H     6.49747   13.92257  -11.10317
       O     6.05776   13.17297  -10.65930
      H1     5.07976   13.35534  -10.68498
       H     3.82122   13.80258   -4.09180
       O     4.63950   14.14755   -4.36950
      H1     5.35902   13.58308   -3.96019
       H     3.90038   19.29101   -5.07903
       O     3.61687   18.36026   -4.97542
      H1     2.78657   18.32811   -5.44588
       H    -0.83564   18.68811  -13.97626
       O    -0.44348   19.50186  -13.74680
      H1     0.46618   19.16542  -13.53493
       H     4.19946   14.81022  -11.92690
       O     3.55724   14.38479  -11.34910
      H1     2.68926   14.74306  -11.65839
       H     5.49238   18.08989   -5.02236
       O     6.36547   17.82422   -4.63571
      H1     6.91533   17.62517   -5.40321
       H     1.69243   15.69447   -2.36806
       O     1.08470   14.95011   -2.49183
      H1     0.83399   15.00632   -3.43406
       H     3.88171   14.19383   -6.16168
       O     3.64396   14.28137   -7.06820
      H1     4.38742   13.86839   -7.55197
       H    -0.46911   15.72953   -5.68009
       O     0.16937   15.07812   -5.34236
      H1    -0.33737   14.19229   -5.40895
       H    -3.23139   19.70214   -6.50373
       O    -3.47613   18.77171   -6.72070
      H1    -4.32391   18.63388   -6.26005
       H     5.69450   12.88948   -8.78808
       O     5.68698   12.66544   -7.81320
      H1     5.12814   11.89175   -7.77534
       H    -3.50700   15.16033   -7.54713
       O    -3.34483   14.98363   -8.47979
      H1    -2.51945   15.36838   -8.75669
       H    -2.06636   16.21171  -11.03802
       O    -2.91159   16.06640  -11.45970
      H1    -3.61002   15.99291  -10.74329
       H    -4.02722   13.89777   -5.38086
       O    -3.72567   14.79750   -5.71729
      H1    -2.77218   14.88400   -5.44637
       H    -3.76922   20.02431   -9.61566
       O    -3.42913   19.12584   -9.40636
      H1    -3.56934   19.12932   -8.43532
       H    -0.09387   15.99890   -9.03200
       O    -0.59190   16.36999   -9.76894
      H1    -0.81744   17.29008   -9.61501

