108
frame 7 | Written by MDAnalysis XYZWriter (release 2.4.3)
       H    -9.41667   19.97054    1.32447
       O    -9.54881   19.06378    1.06587
      H1   -10.47005   18.79565    1.31498
       H    -5.50657   18.60498    5.22798
       O    -6.03991   17.81180    5.07450
      H1    -5.91236   17.66283    4.11292
       H    -8.47920   16.37474    8.71289
       O    -8.90555   16.19124    7.82427
      H1    -8.74952   16.87511    7.14513
       H   -10.29248   16.05672   12.17613
       O    -9.95232   15.23253   11.85092
      H1   -10.45112   14.87365   11.09466
       H    -6.75641   13.54229    7.56407
       O    -6.54055   14.15576    8.28954
      H1    -7.25220   14.80030    8.19812
       H   -12.99775   16.22157    9.86176
       O   -13.64845   16.93849    9.86524
      H1   -13.78890   17.11268   10.83844
       H   -12.60318   18.64327    3.95022
       O   -13.12705   19.13078    4.59261
      H1   -13.73551   18.37238    4.81590
       H    -9.41936   17.09544    4.82020
       O    -8.79572   17.57435    5.38162
      H1    -7.94086   17.30853    5.05817
       H    -3.46583   16.38091    8.09826
       O    -2.62364   16.32536    8.53206
      H1    -2.26170   15.38269    8.44265
       H    -8.45110   14.96447   12.73286
       O    -7.64571   14.86840   13.34636
      H1    -7.32686   13.99251   13.09795
       H   -12.40294   18.18529    1.56290
       O   -11.79114   18.24536    2.33393
      H1   -11.42394   17.38648    2.50914
       H    -8.37743   12.28118    3.34731
       O    -8.02763   11.46788    3.64175
      H1    -8.04300   10.97257    2.81550
       H   -13.45270   17.27021    7.17446
       O   -14.33278   17.17427    6.72339
      H1   -14.92350   16.84599    7.45146
       H   -10.11431   15.51832    3.69382
       O   -10.70049   16.20760    3.99020
      H1   -11.38924   15.78079    4.52545
       H    -7.01418   17.97474    6.81503
       O    -6.93038   18.30939    7.73982
      H1    -7.13658   19.20653    7.73661
       H   -11.62827   14.17625    9.41457
       O   -11.57302   15.12537    9.24602
      H1   -11.18892   15.29143    8.42561
       H    -9.85163   13.18812    3.72178
       O    -9.38315   13.85341    3.22324
      H1    -9.96082   14.00895    2.50924
       H   -11.40614   11.76768    4.42927
       O   -11.04591   12.50844    4.98538
      H1   -10.42067   12.11054    5.65542
       H   -12.47085   18.27600    8.95061
       O   -11.74274   18.37102    8.32320
      H1   -11.14464   17.69689    8.57040
       H    -4.45234   15.79376    9.80959
       O    -4.93401   16.03812   10.55232
      H1    -5.23845   16.95414   10.43423
       H    -9.81775   18.18520   12.63783
       O   -10.45358   17.69507   13.25612
      H1   -10.97852   18.45761   13.53118
       H    -6.48686   16.88705    2.04483
       O    -5.57425   16.99611    2.38605
      H1    -5.34207   17.75220    1.88575
       H    -7.67527   18.37306   11.62468
       O    -8.53407   18.84292   11.74986
      H1    -8.49645   19.54402   11.09907
       H    -7.50394   16.63237    0.56208
       O    -7.95404   16.96336    1.39326
      H1    -8.40139   17.83021    1.21715
       H    -0.96846   18.02271    6.30826
       O    -1.79907   18.27689    6.65996
      H1    -2.08222   17.48889    7.13826
       H   -12.52549   14.22140    5.95143
       O   -12.51632   15.22825    5.87673
      H1   -13.28116   15.64815    6.22756
       H    -6.81372   12.75294    9.46761
       O    -6.69535   11.89689    9.94010
      H1    -7.55745   11.44466   10.08983
       H    -5.05089   19.18522    9.60614
       O    -5.60938   18.51266   10.03024
      H1    -6.18063   18.19568    9.29366
       H    -7.00931   15.82356   10.54513
       O    -7.83008   16.29112   10.34600
      H1    -8.60646   15.85953   10.76985
       H    -9.80967   11.85106    7.92911
       O    -9.41431   11.52846    7.08524
      H1    -9.61986   10.61146    7.03709
       H    -5.40050   16.70781    6.60357
       O    -5.01286   15.90852    6.92630
      H1    -5.62067   15.38081    7.50174
       H   -10.38928   11.28840    9.84855
       O   -10.76941   12.13410    9.52090
      H1   -11.74712   11.96419    9.40736
       H    -6.33570   10.98463    7.59034
       O    -6.70924   11.57358    6.93188
      H1    -7.67924   11.54203    6.98182
       H    -9.09258   14.76157   -0.14832
       O    -9.79843   15.30950    0.25818
      H1    -9.25180   15.86845    0.77273
       H    -4.06416   14.40536    6.24983
       O    -3.36044   13.78863    5.97428
      H1    -3.04829   14.08845    5.15831
       H    -4.02133   12.34391    5.48115
       O    -4.45049   11.52053    5.08463
      H1    -5.30991   11.40012    5.54033

