108
frame 6 | Written by MDAnalysis XYZWriter (release 2.4.3)
       H    16.90657  -10.78228  -16.03457
       O    17.83159  -10.59943  -15.90442
      H1    17.95154   -9.89521  -15.24946
       H     8.00548   -4.97874  -15.20072
       O     7.90559   -4.14307  -15.73602
      H1     7.15284   -3.68426  -15.40409
       H    14.89778   -0.83889  -16.12570
       O    14.98431   -0.07507  -15.60127
      H1    15.96212    0.13810  -15.38697
       H    10.11313   -8.09642  -17.30379
       O    10.02650   -8.56935  -18.12020
      H1     9.82494   -7.89830  -18.78303
       H    14.98117   -7.30452  -18.93137
       O    15.31679   -8.16064  -18.50512
      H1    15.83297   -7.98527  -17.70020
       H    11.89861  -10.47294  -11.18067
       O    11.57090   -9.54685  -11.17592
      H1    11.92667   -8.99201  -11.89843
       H    11.94741   -8.47660   -9.77476
       O    12.23374   -7.96749   -9.01357
      H1    13.20089   -8.16221   -8.99806
       H    13.19352   -2.08606  -10.56217
       O    12.81141   -1.27987  -10.25429
      H1    11.96533   -1.22675  -10.76062
       H    16.49749   -5.64778  -12.04942
       O    15.59249   -5.85884  -12.22811
      H1    15.32431   -6.68168  -11.75463
       H    14.86630   -5.70819  -14.15837
       O    14.40820   -5.84471  -14.99895
      H1    13.67022   -6.39889  -14.80040
       H    10.36240   -5.09515  -16.05643
       O    11.06030   -4.55067  -16.48252
      H1    10.97602   -3.65222  -16.09240
       H     9.11044   -9.98938  -14.30361
       O     9.62432   -9.52714  -14.96822
      H1     9.09489   -9.61638  -15.74902
       H    10.28607   -3.04322  -10.32528
       O    10.61595   -3.77665  -10.91566
      H1    10.96779   -3.32084  -11.75578
       H    15.07234   -3.36547  -18.66961
       O    14.26256   -2.84376  -18.54039
      H1    14.12663   -2.76405  -17.58615
       H    14.71025   -2.55960  -14.71843
       O    14.42782   -2.92816  -15.56369
      H1    14.27608   -3.85295  -15.45329
       H    12.16218   -9.69815  -18.00580
       O    13.07861   -9.53038  -17.76852
      H1    13.42239   -8.68376  -18.04241
       H    11.22319   -1.16476  -13.28496
       O    11.40080   -2.05027  -12.95642
      H1    12.31304   -2.19024  -12.92046
       H    15.17167   -3.62108  -11.17221
       O    14.47943   -3.41383  -10.49346
      H1    14.34441   -4.19261   -9.95639
       H    18.45172   -9.06176  -12.86588
       O    18.80459   -8.78562  -13.69265
      H1    18.22167   -8.09357  -13.97207
       H    17.87152   -4.91891  -17.52009
       O    17.05864   -4.48704  -17.80955
      H1    17.09836   -3.65112  -17.30355
       H    17.69092   -3.19081  -11.99438
       O    17.95100   -3.97555  -11.50380
      H1    17.51969   -3.93087  -10.65093
       H    13.30375   -6.03030   -8.88337
       O    13.94109   -5.36872   -8.78335
      H1    13.36921   -4.63269   -8.35143
       H    15.09075   -9.60131  -14.96057
       O    14.58124   -9.66850  -14.15173
      H1    13.79098  -10.18377  -14.41139
       H    15.10845   -9.09552  -11.51026
       O    14.66025   -8.28238  -11.17624
      H1    14.77617   -8.31267  -10.19562
       H    10.39441   -2.63196  -14.35154
       O    10.15564   -2.37048  -15.28010
      H1     9.50440   -2.95151  -15.62342
       H    12.40197   -7.05000  -12.73089
       O    12.35247   -7.89770  -13.26298
      H1    13.27028   -8.28339  -13.18067
       H    10.06222   -7.52845  -15.06131
       O     9.38969   -6.82842  -15.32741
      H1     8.56494   -7.21408  -15.04127
       H    13.42913   -5.55834  -11.50675
       O    12.64695   -5.63055  -11.95391
      H1    11.93334   -5.36784  -11.40783
       H    14.33453  -10.69801  -17.02675
       O    15.31752  -10.97383  -17.09983
      H1    15.43285  -10.89859  -18.04154
       H    19.03274   -3.38372  -14.57343
       O    19.26142   -4.29719  -14.52351
      H1    19.09014   -4.49460  -13.60174
       H    17.25341   -6.75990  -16.21728
       O    16.66891   -7.36639  -15.70508
      H1    15.94234   -6.82197  -15.33827
       H    16.21550   -2.40881  -13.71339
       O    15.53534   -2.33895  -12.99765
      H1    15.39132   -1.34133  -12.97864
       H    11.21387  -10.49996  -14.55419
       O    11.88766  -11.28276  -14.54510
      H1    11.84189  -11.63775  -15.40044
       H    10.57135   -4.58098  -19.47909
       O    10.80517   -3.67142  -19.66572
      H1    11.30088   -3.47804  -18.82765
       H    16.43328  -11.64395  -12.50213
       O    15.87511  -10.97346  -12.07979
      H1    15.53154  -10.41791  -12.81064
       H    19.44451   -5.31149  -16.01149
       O    19.21970   -5.83311  -16.83219
      H1    19.89814   -6.55372  -16.94412

