108
frame 9 | Written by MDAnalysis XYZWriter (release 2.4.3)
       H    18.00781  -13.72302   -6.63957
       O    17.97596  -14.03463   -7.54973
      H1    17.56530  -13.34810   -8.07786
       H    19.10790  -15.64277   -8.32503
       O    19.65332  -16.43066   -8.20029
      H1    20.11922  -16.42413   -9.04256
       H    16.88828  -18.20505  -13.00883
       O    16.18540  -17.58490  -13.30974
      H1    15.47876  -17.67493  -12.61278
       H    17.33247  -11.00345  -17.08690
       O    18.31039  -11.06536  -17.25992
      H1    18.82007  -10.95807  -16.44146
       H    14.26717  -18.51119   -6.74420
       O    13.42323  -19.04264   -6.90061
      H1    12.75258  -18.55018   -6.47367
       H    15.15181  -12.69918  -15.96837
       O    14.73856  -13.48831  -15.56234
      H1    15.26376  -14.22246  -15.85982
       H    15.66286  -17.33363   -7.11022
       O    15.74587  -17.87513   -6.30769
      H1    16.42074  -18.47351   -6.59612
       H    12.56790  -16.69377  -14.76706
       O    12.86980  -16.91627  -15.64641
      H1    13.56981  -17.52616  -15.71763
       H    18.43092  -13.31633  -16.58960
       O    18.73772  -13.77921  -15.79797
      H1    19.67880  -13.60820  -15.70289
       H    11.56295  -13.44677  -10.43021
       O    10.74545  -13.09395  -10.71809
      H1    10.13678  -13.84648  -10.60516
       H    14.60168  -12.78554   -8.86718
       O    14.88322  -12.31171   -8.10637
      H1    15.78460  -12.02096   -8.51224
       H    16.72261  -16.61666  -15.47986
       O    16.48553  -15.77784  -15.86324
      H1    17.34725  -15.34985  -15.93889
       H    12.33360  -18.88073   -8.87440
       O    12.25111  -18.08393   -9.41285
      H1    12.54234  -17.33257   -8.88078
       H    13.44081  -10.91304  -10.90594
       O    14.15973  -11.35170  -11.41642
      H1    14.24012  -12.19658  -10.97970
       H    15.36554  -18.94890  -16.02562
       O    14.56432  -19.16787  -16.53448
      H1    14.79109  -19.40316  -17.44635
       H    13.64723  -18.07836  -10.87276
       O    14.19360  -17.59618  -11.49110
      H1    13.60825  -16.97988  -11.97467
       H    19.85557   -9.35151  -14.75566
       O    19.67041  -10.26962  -14.98756
      H1    18.87786  -10.44467  -14.47313
       H    13.61490  -15.33708   -7.54184
       O    12.90570  -15.61958   -8.09949
      H1    12.25107  -15.91050   -7.46908
       H    14.80245  -14.27914   -5.84003
       O    15.25074  -14.89226   -6.42216
      H1    15.96603  -14.44812   -6.82756
       H    13.25267  -14.39703   -9.28963
       O    13.42850  -13.77756  -10.01416
      H1    13.59480  -14.37320  -10.75937
       H    16.74782  -16.94600  -17.55386
       O    17.34884  -17.46028  -18.08613
      H1    18.19476  -17.30919  -17.58820
       H    10.54802  -11.66403  -12.03119
       O    11.15545  -11.00225  -12.38068
      H1    11.94315  -11.55676  -12.55417
       H    11.64182  -13.27275  -14.94398
       O    12.30679  -13.42150  -14.24692
      H1    13.07684  -13.23584  -14.80592
       H    15.08140  -17.13473  -10.07199
       O    15.64351  -16.67996   -9.42902
      H1    16.20880  -17.37520   -9.05510
       H    11.02598  -17.26173  -16.25077
       O    10.07244  -17.27909  -15.96959
      H1     9.65260  -16.49013  -16.30446
       H    16.09221  -13.72994  -19.37000
       O    15.49960  -13.48469  -18.68073
      H1    14.94541  -12.78807  -19.09855
       H    10.62588  -18.73391  -10.94509
       O    10.06833  -19.40152  -11.38631
      H1    10.52535  -19.35110  -12.24492
       H    18.75514  -10.02778  -11.23581
       O    18.35696   -9.14294  -11.15851
      H1    17.48587   -9.12275  -11.53696
       H    15.45451  -10.56044  -15.52223
       O    15.42501  -10.94753  -16.40797
      H1    14.72113  -10.42110  -16.84273
       H    17.66318  -11.18297   -9.07070
       O    17.14314  -11.99325   -9.43610
      H1    16.64016  -11.65142  -10.19016
       H    11.06989  -15.88950  -12.47608
       O    11.95757  -15.99098  -12.81583
      H1    12.19223  -15.09378  -13.14378
       H    19.69644  -17.12191  -15.41117
       O    19.29650  -16.65140  -16.13860
      H1    19.55798  -15.76008  -15.95119
       H    16.22513  -14.52554  -12.57034
       O    15.55098  -13.85278  -12.72382
      H1    15.62407  -13.66978  -13.64717
       H    13.60475  -14.32204  -17.20329
       O    12.92201  -14.97606  -17.47615
      H1    13.11399  -15.72185  -16.84811
       H    16.81713  -11.86560  -13.20874
       O    17.53244  -11.16886  -13.17489
      H1    18.10363  -11.40310  -12.43818
       H    16.79155  -15.88851  -10.81602
       O    17.42716  -15.79987  -11.47707
      H1    17.24742  -16.53463  -12.10314

