108
frame 2 | Written by MDAnalysis XYZWriter (release 2.4.3)
       H    -3.06259    3.13900   -2.93885
       O    -3.70487    2.47524   -2.59544
      H1    -4.18993    2.81040   -1.80887
       H    -6.51341    5.89477   -5.26637
       O    -5.99092    5.12143   -5.30793
      H1    -6.47469    4.44911   -4.76397
       H    -7.34736    6.22728   -8.12988
       O    -7.88550    6.77892   -7.52909
      H1    -8.79498    6.55649   -7.71327
       H   -10.26009    5.36076   -7.23270
       O   -10.46706    5.48195   -8.17441
      H1   -10.04268    4.73254   -8.67744
       H    -7.48463    2.75661   -4.86760
       O    -6.81856    2.85066   -4.12140
      H1    -7.13771    2.14510   -3.49546
       H   -11.51498    5.24838   -4.99420
       O   -10.67179    5.49335   -5.35676
      H1   -10.42233    6.34299   -4.97546
       H    -3.81669    0.92050   -5.15154
       O    -4.73219    1.03504   -4.91676
      H1    -4.78019    1.74112   -4.29628
       H    -8.74996   -1.42213   -8.47935
       O    -8.99044   -1.95557   -9.29609
      H1    -8.16803   -1.79990   -9.79473
       H    -4.66265   -1.75136   -2.54721
       O    -4.01193   -2.20585   -1.97809
      H1    -3.22402   -2.18691   -2.52520
       H    -9.11439    4.14842   -6.07816
       O    -8.77090    3.26140   -6.17556
      H1    -9.50531    2.63200   -6.17752
       H    -6.90859    5.47738    1.73659
       O    -6.77037    5.30730    0.77048
      H1    -7.61443    4.92455    0.43632
       H    -4.65153    5.99243   -2.88798
       O    -5.03911    6.16507   -2.01729
      H1    -4.73832    5.47480   -1.46395
       H    -7.79976   -3.16030   -3.82897
       O    -7.22896   -2.61852   -4.41476
      H1    -6.75861   -3.26373   -4.92403
       H    -6.53399    1.83877   -7.50549
       O    -6.41883    0.96304   -7.11736
      H1    -5.92112    1.11411   -6.31312
       H    -7.45943    3.43569   -7.80364
       O    -6.49769    3.63438   -7.71673
      H1    -6.39001    4.12910   -6.92141
       H    -5.09223    2.01972    0.06625
       O    -5.58583    1.62766    0.75837
      H1    -5.46437    0.68235    0.46721
       H    -9.97376    2.88890   -9.62452
       O    -9.34135    3.18329   -8.98135
      H1    -9.69803    2.85935   -8.14465
       H    -4.23855    5.46408   -5.44904
       O    -3.30578    5.48255   -5.69656
      H1    -2.77860    5.04341   -5.04016
       H    -7.03691    0.17245   -2.66914
       O    -7.64780    0.90656   -2.35451
      H1    -8.00661    0.56762   -1.50004
       H   -11.18537    2.22347   -1.37485
       O   -12.11178    2.41029   -1.62142
      H1   -12.06730    2.67303   -2.60023
       H    -7.65620   -0.29411   -6.87324
       O    -8.37130   -0.91560   -6.74865
      H1    -8.04197   -1.43657   -6.01552
       H    -5.48904   -0.03533   -3.97815
       O    -5.76488   -0.68231   -3.30845
      H1    -6.30799   -1.38381   -3.75317
       H    -4.17407    0.85132   -9.64521
       O    -4.26158    1.81740   -9.87546
      H1    -5.16982    2.03207   -9.95373
       H    -6.88321    5.27899   -2.44959
       O    -7.80714    4.91896   -2.50613
      H1    -7.72587    4.08205   -2.98519
       H    -6.19254    5.24879  -10.50123
       O    -6.88296    5.31619   -9.80464
      H1    -6.59438    4.68385   -9.10642
       H   -12.87471    2.79094   -4.84650
       O   -12.74708    3.42660   -4.14955
      H1   -13.42069    4.12775   -4.36099
       H    -5.48390   -0.04487   -8.52176
       O    -5.00454   -0.76493   -8.94386
      H1    -5.57637   -1.33450   -9.43950
       H    -4.97693    4.35876    0.27212
       O    -4.37816    4.00784   -0.41201
      H1    -3.48433    4.09229   -0.03571
       H    -3.26184    4.07130   -7.15312
       O    -2.89454    3.53097   -7.84565
      H1    -3.53963    3.06809   -8.44012
       H    -7.72953    2.59397  -10.06462
       O    -6.98031    2.05231  -10.39543
      H1    -6.88577    2.44256  -11.31182
       H   -11.05094    0.49950   -6.81834
       O   -10.56565    1.01764   -6.16260
      H1    -9.82707    0.42386   -5.92466
       H    -8.22969    6.52637   -3.00145
       O    -8.50381    7.32934   -3.61373
      H1    -9.06357    7.81138   -2.99981
       H    -1.45391    3.19283   -4.08924
       O    -1.88090    3.99551   -3.84454
      H1    -1.39054    4.48591   -3.15593
       H    -3.76188   -0.21358   -1.76608
       O    -3.35653    0.25878   -1.04556
      H1    -3.15693    1.13336   -1.38456
       H    -9.84334    4.79760    0.59806
       O    -9.19686    4.21383    0.13046
      H1    -9.01602    4.58369   -0.73166
       H    -9.28346    0.62776    0.06343
       O    -9.88262    1.36808   -0.03334
      H1    -9.40350    2.13253    0.25856

