108
frame 3 | Written by MDAnalysis XYZWriter (release 2.4.3)
       H     8.65581   -1.36667    0.02576
       O     8.24652   -2.20985    0.08276
      H1     9.01889   -2.80677    0.12543
       H    11.67363   -2.16215   -0.23780
       O    11.52586   -2.02732   -1.24841
      H1    11.92364   -2.80977   -1.62354
       H    13.67968   -4.64549    3.46784
       O    13.68560   -5.04008    4.43957
      H1    14.50252   -5.60213    4.46121
       H    13.14782  -10.47478   -0.35559
       O    12.71345   -9.67596   -0.52701
      H1    12.01455   -9.98591   -1.19850
       H     7.37550   -6.38660    5.16606
       O     8.02235   -6.81955    5.73717
      H1     7.87966   -7.73781    5.64096
       H    14.60825   -3.98486   -1.87465
       O    13.73475   -4.09860   -1.45270
      H1    13.21687   -4.64859   -2.04065
       H     7.18850   -4.74735    3.18581
       O     7.67538   -4.46564    2.43342
      H1     7.20394   -3.77385    1.98742
       H    10.74272   -4.57965    6.93874
       O    11.55909   -4.93947    7.24092
      H1    11.93377   -5.57168    6.59972
       H    14.67621   -9.49837    3.54932
       O    15.43457   -9.10838    3.01137
      H1    15.67832   -8.35602    3.54611
       H     9.89679   -0.74827    2.24606
       O     9.17559   -0.43693    2.87699
      H1     8.45355   -0.00786    2.32650
       H    12.95608  -11.08202    3.75386
       O    12.84559  -10.09152    3.91159
      H1    12.65998  -10.03453    4.86025
       H    16.94250   -6.54267    4.54087
       O    15.99070   -6.64182    4.77850
      H1    15.99796   -7.18458    5.54869
       H    10.62222   -4.88533    0.48570
       O     9.82880   -4.85750   -0.07890
      H1    10.21252   -4.91906   -1.01175
       H    14.06763   -3.66653    5.15503
       O    14.45165   -2.82528    5.46119
      H1    15.33384   -2.85912    5.09281
       H    10.10502   -8.09142    4.42978
       O    10.66709   -7.45086    3.99494
      H1    10.85411   -7.76488    3.08169
       H    11.84592   -1.79595    2.36807
       O    11.62063   -2.06438    1.46484
      H1    11.79533   -3.04813    1.60522
       H     9.92344  -10.17131    2.45808
       O    10.25029  -10.41109    3.33560
      H1    11.22183  -10.18622    3.36322
       H     8.23164   -7.26193   -1.00570
       O     8.60841   -7.03027   -1.87509
      H1     8.86640   -7.94032   -2.25808
       H    15.99552   -3.75910    0.57745
       O    15.17549   -3.39189    0.93132
      H1    14.62937   -3.60032    0.21197
       H    13.26714    0.78331   -1.64299
       O    13.24834    0.05327   -2.27414
      H1    12.70197   -0.63715   -1.76243
       H    19.00601   -3.85830    3.06065
       O    18.11895   -4.13446    2.85689
      H1    17.61344   -3.67668    3.56742
       H    12.69420   -5.52437    1.67271
       O    12.09129   -4.78151    1.93729
      H1    11.70110   -5.00855    2.78673
       H    11.66362    1.01632    0.88719
       O    10.82913    1.12455    1.36295
      H1    10.69510    2.08750    1.35123
       H     9.31141   -4.58227    3.26194
       O    10.08432   -4.68782    3.83357
      H1    10.18935   -5.70993    3.95898
       H    13.56236   -1.40019    4.66510
       O    13.05653   -1.14521    3.87952
      H1    12.52176   -0.41172    4.19419
       H    12.38802   -7.44279    6.46293
       O    13.21903   -7.38034    5.91544
      H1    12.86470   -7.00648    5.08958
       H    14.04845   -7.51957    1.91057
       O    13.86580   -6.83073    1.31264
      H1    14.49266   -6.85552    0.60285
       H     8.50805   -2.41532   -1.73909
       O     8.79890   -2.42379   -2.65367
      H1     9.74833   -2.17782   -2.46627
       H    11.76376   -0.45858    7.17037
       O    10.91728   -0.79589    6.87708
      H1    11.13186   -1.70145    6.67638
       H    15.03232   -1.57453    1.65167
       O    14.87721   -0.68924    2.04039
      H1    14.44788   -0.87882    2.91979
       H     8.21188   -2.37460    5.60664
       O     7.69539   -1.59859    5.26759
      H1     8.12495   -1.24704    4.50408
       H    11.46654   -5.84740   -2.20753
       O    11.30892   -4.93319   -2.42340
      H1    10.99432   -5.00310   -3.33907
       H    12.02435   -7.66893    1.27755
       O    11.15421   -8.14175    1.39567
      H1    11.23046   -8.88786    0.77035
       H     9.19709   -6.80412    0.81177
       O     8.33510   -6.91146    1.26135
      H1     8.05210   -5.99116    1.32625
       H    16.60043   -6.92340   -0.61352
       O    15.84190   -7.45178   -0.71197
      H1    16.08752   -8.26063   -0.27605
       H     8.86234   -4.00012    6.46103
       O     9.37493   -3.34105    6.01548
      H1     9.75973   -3.78820    5.23309

