108
frame 9 | Written by MDAnalysis XYZWriter (release 2.4.3)
       H   -18.38992   12.07441   -8.18478
       O   -18.48802   11.14850   -8.61531
      H1   -19.34710   11.11852   -8.95552
       H   -16.83727   12.21719   -4.31073
       O   -17.66282   12.63898   -4.08286
      H1   -18.30410   12.12845   -4.57170
       H   -14.68388   12.20490   -9.73596
       O   -14.96867   12.16388   -8.85003
      H1   -15.52223   12.95922   -8.70401
       H   -15.26591   12.65546  -12.32318
       O   -14.97522   11.78154  -11.90156
      H1   -15.67417   11.46439  -11.33979
       H   -15.86720   15.84639  -12.35341
       O   -16.34735   16.70310  -12.28014
      H1   -16.16406   17.07814  -11.44757
       H   -19.07081   16.79008  -10.94329
       O   -19.52526   17.56815  -10.61520
      H1   -19.06559   17.76538   -9.74361
       H   -13.16376   15.39611   -3.40652
       O   -14.01388   14.94127   -3.54459
      H1   -14.72595   15.53264   -3.25997
       H   -14.34803    8.96539  -11.24412
       O   -13.62790    9.42644  -11.71200
      H1   -13.85520   10.33342  -11.96618
       H   -17.24486   16.71705  -14.07713
       O   -17.53437   16.44569  -14.97548
      H1   -18.11472   17.07122  -15.45187
       H   -14.00313   14.19271   -5.05603
       O   -14.32495   13.76005   -5.88072
      H1   -13.74828   13.94016   -6.60824
       H   -12.01959    9.69032   -7.72574
       O   -12.60459    8.98973   -7.83757
      H1   -13.48880    9.38002   -7.74887
       H   -15.73960   17.43048   -2.63656
       O   -15.99332   16.56146   -2.97695
      H1   -16.42673   16.82796   -3.80693
       H   -19.07519   11.42400  -13.35789
       O   -18.20774   11.53972  -12.89915
      H1   -17.95592   12.33151  -13.37133
       H   -18.72251    9.84784   -6.25159
       O   -19.23960   10.37491   -5.58100
      H1   -19.46734    9.61904   -5.00853
       H   -14.33596   14.52489  -13.35635
       O   -15.30839   14.49838  -13.24462
      H1   -15.73456   14.29491  -14.10954
       H   -16.82411   10.01316   -3.53733
       O   -16.87838    9.03488   -3.55741
      H1   -16.97803    8.82785   -4.49155
       H   -18.00902   14.32174   -8.58111
       O   -17.32658   13.77290   -8.06197
      H1   -17.20089   14.20329   -7.17379
       H   -14.26724   16.86206   -9.75162
       O   -14.37483   15.92323   -9.62919
      H1   -13.53647   15.66301   -9.96385
       H   -18.21276    8.42749   -7.35327
       O   -17.49367    8.48371   -6.71863
      H1   -16.80259    9.08716   -7.05998
       H   -18.59897   13.69375   -1.56050
       O   -18.86200   12.72823   -1.34568
      H1   -18.71546   12.22670   -2.23274
       H   -13.36341   16.97836   -6.11329
       O   -12.41570   16.99692   -6.04607
      H1   -12.15825   16.37135   -5.35583
       H   -15.10798   11.25050  -15.00839
       O   -15.16031   10.49226  -14.46375
      H1   -15.39218   10.94339  -13.65462
       H   -19.81808   14.16113   -9.83029
       O   -19.73993   14.60493   -8.98134
      H1   -19.47523   15.53906   -9.12885
       H   -18.45466   17.14266   -4.43555
       O   -17.62092   17.40514   -4.89024
      H1   -17.24012   16.60027   -5.18388
       H   -18.94906   13.49162  -15.55159
       O   -18.22363   13.30432  -16.17299
      H1   -18.34921   12.36763  -16.49360
       H   -12.87671   15.42228   -8.23311
       O   -12.24921   14.95638   -7.70883
      H1   -12.04517   15.69956   -7.06504
       H   -17.51822   18.45071   -7.86710
       O   -18.19566   17.85471   -8.23975
      H1   -18.90513   17.68020   -7.61461
       H   -15.31251   17.72149   -7.14259
       O   -15.07061   16.85020   -6.77696
      H1   -15.62287   16.33209   -7.30387
       H   -15.06048   10.53010   -5.90495
       O   -15.51504   11.15264   -5.32722
      H1   -15.06285   12.03644   -5.46965
       H   -17.84998   15.55573  -11.82038
       O   -18.60290   15.07416  -11.52106
      H1   -19.08209   14.85324  -12.36709
       H   -17.45142   10.59063   -9.84908
       O   -16.90073   10.43269  -10.61256
      H1   -17.53888   10.69692  -11.31191
       H   -12.47151   15.14689  -11.64984
       O   -12.06446   15.36438  -10.83654
      H1   -11.78634   16.31626  -11.07363
       H   -14.27515   17.25517  -14.61274
       O   -13.84584   17.76812  -13.92292
      H1   -14.50605   17.97986  -13.26622
       H   -17.48921   15.72102   -2.22767
       O   -17.97702   15.34110   -1.48495
      H1   -18.31616   16.10953   -1.05325
       H   -15.48486    8.90933   -8.26904
       O   -15.18753    9.57437   -7.64038
      H1   -15.12962   10.47790   -8.03510
       H   -15.84095   14.59621   -5.79400
       O   -16.76577   14.67583   -5.75283
      H1   -17.14878   14.06645   -5.08886

