108
frame 4 | Written by MDAnalysis XYZWriter (release 2.4.3)
       H   -17.16313   11.92693  -10.48012
       O   -16.99401   10.98856  -10.77422
      H1   -17.62990   10.46689  -10.25302
       H   -16.65135   11.84106   -5.24665
       O   -17.05717   11.75700   -4.40846
      H1   -17.34361   10.83572   -4.27008
       H   -11.80744   14.18990  -10.65835
       O   -12.67752   13.82328  -10.31826
      H1   -13.14520   13.49083  -11.04669
       H   -14.01430   12.20533  -12.99953
       O   -14.24605   11.87966  -12.13975
      H1   -15.08336   12.33397  -12.02309
       H   -17.79988    4.10247  -10.77600
       O   -18.02929    3.54803  -11.50897
      H1   -18.27332    2.73352  -11.10492
       H   -13.71436    9.65432   -9.74331
       O   -12.85305    9.36751  -10.00119
      H1   -12.33899   10.20992  -10.03499
       H   -19.19831   10.10726   -8.90283
       O   -18.62849    9.48725   -9.33673
      H1   -19.17041    9.29964  -10.13998
       H   -12.63654    9.31830   -5.88212
       O   -13.02485    8.73222   -6.57626
      H1   -13.81206    9.12499   -6.94012
       H   -17.08472   13.06714  -13.43019
       O   -17.11395   12.24573  -14.02321
      H1   -17.59321   11.48755  -13.59260
       H   -16.31059    7.36660  -12.50003
       O   -15.54544    7.21185  -11.92452
      H1   -14.99382    7.98654  -12.02466
       H   -17.03057    8.49748   -4.64792
       O   -17.57480    9.18402   -4.21303
      H1   -17.39723    9.16354   -3.22399
       H   -14.59132    6.94528   -8.15450
       O   -15.43303    7.34353   -8.35145
      H1   -15.79962    6.66203   -8.92318
       H   -12.92432    5.74578   -6.51244
       O   -13.24099    5.40922   -7.36956
      H1   -12.57768    5.62725   -8.05103
       H   -14.42388   11.13457   -2.64110
       O   -14.71272   10.26679   -2.99761
      H1   -15.49438   10.44112   -3.51226
       H   -15.79253    3.46839   -7.14379
       O   -15.05163    3.11719   -7.60761
      H1   -14.35001    3.70426   -7.31371
       H   -16.41073   14.19223  -11.47189
       O   -16.07031   13.52022  -10.85849
      H1   -15.53139   13.94931  -10.20620
       H   -12.07113    7.47417  -10.22299
       O   -11.77306    6.58791  -10.02225
      H1   -11.00063    6.68970   -9.48113
       H   -17.93220    7.26643   -6.66509
       O   -17.07957    7.40986   -6.15079
      H1   -16.41800    7.45682   -6.85787
       H   -17.80198    7.89021  -15.96526
       O   -16.82560    8.04022  -16.04363
      H1   -16.55621    8.39847  -15.23122
       H   -18.53699    4.23183  -13.01418
       O   -18.93006    4.74857  -13.73332
      H1   -19.63350    4.16055  -14.16690
       H   -16.28196    6.34496  -10.84560
       O   -16.69674    5.68870  -10.16729
      H1   -17.63485    5.99219  -10.13618
       H   -14.53560   10.54093  -15.44663
       O   -15.14266   10.52640  -14.65254
      H1   -15.58561   11.40434  -14.63255
       H   -14.76733    5.52044  -11.80179
       O   -14.47305    4.77775  -12.39779
      H1   -14.81619    3.96585  -11.95475
       H   -19.16789   14.57367  -12.35276
       O   -18.70914   14.38294  -11.52327
      H1   -18.69841   15.24836  -11.07909
       H   -19.36464   15.94900   -5.13351
       O   -19.36351   15.52123   -6.06352
      H1   -18.44892   15.33911   -6.33351
       H   -18.29883   12.66948  -15.43643
       O   -18.42653   12.82401  -16.39648
      H1   -18.21037   11.92747  -16.68350
       H   -18.71902   17.40967   -9.84200
       O   -18.67035   16.43963   -9.72261
      H1   -17.85513   16.34944   -9.22643
       H   -15.49111   11.42280   -7.45540
       O   -15.63360   12.21866   -6.94794
      H1   -14.83214   12.67684   -6.74556
       H   -17.30570    5.44121   -5.69715
       O   -17.39252    4.45312   -5.82442
      H1   -18.31572    4.20683   -5.67346
       H   -18.65861   10.62230  -12.06540
       O   -19.17511   10.16542  -12.74519
      H1   -20.16336   10.30437  -12.51899
       H   -13.55317    9.41102  -11.89895
       O   -13.67525    8.79316  -12.68188
      H1   -14.29103    9.32176  -13.23401
       H   -19.22672    8.32039   -8.17688
       O   -19.44059    7.64511   -7.53880
      H1   -19.45919    6.92027   -8.14739
       H   -17.99717    6.14141  -13.51965
       O   -17.69774    7.03313  -13.31385
      H1   -18.37667    7.61490  -13.04657
       H   -18.83676   12.42517   -5.26860
       O   -19.64467   12.84492   -5.59537
      H1   -19.47100   13.82122   -5.44905
       H   -15.40857    9.00932   -8.70699
       O   -15.26819    9.93172   -8.81513
      H1   -15.72492   10.25787   -9.59709
       H   -15.75885   15.38466   -8.13680
       O   -16.48881   14.95213   -7.59177
      H1   -16.32930   13.97974   -7.46695

