108
frame 1 | Written by MDAnalysis XYZWriter (release 2.4.3)
       H   -18.94232   -0.79436   -4.79771
       O   -18.78243    0.06658   -5.25009
      H1   -18.65173    0.59819   -4.40296
       H   -17.70786   12.14540  -11.14600
       O   -17.93018   11.31228  -11.55376
      H1   -18.32108   10.69475  -10.88984
       H   -19.69592    1.63238   -9.86840
       O   -19.13512    2.21076   -9.31141
      H1   -19.83630    2.78427   -8.98185
       H   -14.37732    0.98409   -6.09171
       O   -13.56121    0.46916   -5.98350
      H1   -13.06305    0.64570   -6.74132
       H   -17.16904   -1.27878  -11.13651
       O   -16.56447   -1.08097  -11.91575
      H1   -16.68617   -1.82070  -12.48372
       H   -17.33124    0.66723  -12.68092
       O   -17.86364    1.43348  -12.85625
      H1   -18.11008    1.35076  -13.80404
       H   -14.78073   -0.13439  -12.17384
       O   -14.20470    0.51320  -12.57651
      H1   -14.36040    0.28253  -13.51905
       H   -17.36012    4.72521  -10.71531
       O   -18.29509    4.38965  -10.61610
      H1   -18.30169    3.64145  -10.02369
       H   -12.33344    1.32767  -15.06636
       O   -13.31001    1.52316  -15.30746
      H1   -13.37450    2.35233  -14.81784
       H   -14.32583   -0.89109  -10.05988
       O   -14.24566   -1.85440   -9.99042
      H1   -14.26153   -2.17687  -10.88299
       H   -17.92987    8.00925  -16.76497
       O   -17.93932    7.07595  -16.92228
      H1   -17.77382    6.84278  -17.87260
       H   -14.65133    2.08647  -12.01295
       O   -15.20108    2.62458  -11.34793
      H1   -16.10820    2.47996  -11.64911
       H   -14.01340    8.57174  -12.01169
       O   -13.69503    7.66861  -12.23553
      H1   -12.79185    7.84047  -12.54742
       H   -12.74025    1.71334   -8.43636
       O   -11.94654    1.68187   -7.82023
      H1   -11.23978    1.48378   -8.42341
       H   -14.38259    3.70738  -10.32435
       O   -13.80842    4.31941   -9.81972
      H1   -13.97619    5.24723  -10.05809
       H   -19.41128   -2.27234   -7.19655
       O   -18.47132   -2.14227   -7.36385
      H1   -18.31008   -1.19791   -7.34813
       H   -16.17699    4.33056   -3.93048
       O   -16.38737    5.24976   -4.16268
      H1   -15.51581    5.61917   -4.14563
       H   -16.79978    4.99855  -14.05916
       O   -15.94829    5.42647  -13.87048
      H1   -16.00555    6.26314  -14.35494
       H   -14.59353    7.68978   -9.71741
       O   -15.56128    7.85594   -9.62012
      H1   -15.96585    7.22363  -10.26954
       H   -13.92591    5.59008   -6.94485
       O   -13.58124    4.63674   -6.93376
      H1   -13.34198    4.38732   -7.84495
       H   -12.51486    3.80941  -11.04089
       O   -11.80129    3.63675  -11.69964
      H1   -11.33422    4.49637  -11.86679
       H   -16.25964    2.48867   -7.29483
       O   -15.27879    2.40277   -7.10931
      H1   -15.00789    3.34867   -7.14828
       H   -19.47576   -1.72911  -10.57237
       O   -18.75402   -2.31724  -10.27376
      H1   -18.70010   -2.30747   -9.28869
       H   -12.91215    7.19151  -10.52718
       O   -12.83875    6.96700   -9.60463
      H1   -11.91641    6.78120   -9.48083
       H   -17.78716    7.70080   -7.74739
       O   -16.98725    7.95262   -7.26549
      H1   -16.37895    8.08607   -8.00003
       H   -18.55442    9.79679  -15.68850
       O   -17.67150    9.60462  -16.07431
      H1   -17.15308    9.22723  -15.33586
       H   -18.13218    0.43014   -6.70657
       O   -17.68455    0.40569   -7.64244
      H1   -18.26221    0.93703   -8.19253
       H   -18.41501    4.10201  -12.80899
       O   -18.59061    4.36475  -13.71520
      H1   -19.21123    5.16603  -13.66127
       H   -14.39431    1.48742  -10.26981
       O   -14.26724    0.89901   -9.48779
      H1   -14.95364    1.17148   -8.87755
       H   -16.46768    6.13039  -12.44538
       O   -16.84247    6.35441  -11.53166
      H1   -17.70412    6.71629  -11.61371
       H   -13.91427    4.69834  -13.74822
       O   -13.32008    3.94894  -13.99103
      H1   -12.75209    3.68131  -13.23103
       H   -17.48003    4.17694   -5.76492
       O   -17.87003    3.37392   -6.14892
      H1   -18.76278    3.62775   -6.36228
       H   -14.99838    8.33126  -13.46468
       O   -15.51000    8.46578  -14.26248
      H1   -15.73493    9.41526  -14.19076
       H   -18.23536    2.26557   -2.51223
       O   -18.70754    2.27870   -3.34588
      H1   -18.31846    2.95753   -3.91914
       H   -14.22214    7.59260   -7.57625
       O   -14.41484    7.09379   -6.74184
      H1   -15.37800    7.09775   -6.64598
       H   -15.81389    9.31463  -10.64675
       O   -15.33280    9.86759  -11.27656
      H1   -16.00490   10.46275  -11.60830

