108
frame 11 | Written by MDAnalysis XYZWriter (release 2.4.3)
       H     7.66323   10.16133  -11.91529
       O     8.65145   10.11658  -11.64251
      H1     8.71779   10.76070  -10.90793
       H    15.86570    8.41740   -5.83569
       O    15.95158    9.23752   -6.40078
      H1    15.12775    9.74502   -6.22721
       H    13.25902   10.16049  -13.11401
       O    13.40250   11.05392  -13.19993
      H1    13.97084   11.36646  -12.51549
       H     8.73312   14.73280  -10.37300
       O     8.02043   14.21256  -10.81617
      H1     8.46648   13.55582  -11.41559
       H    11.94823    5.11173   -7.65022
       O    11.31150    4.99653   -6.90761
      H1    11.80482    5.10613   -6.04855
       H    14.19755   13.44342   -9.49284
       O    14.59725   14.29215   -9.70622
      H1    13.82291   14.80940   -9.99022
       H    15.31354   13.31650  -10.81324
       O    15.70961   12.69963  -11.45819
      H1    16.62605   12.65625  -11.14249
       H    15.23898    7.90154   -8.01411
       O    14.39622    8.00580   -8.46856
      H1    13.94811    8.70755   -8.00024
       H    10.27380   13.40193   -6.78471
       O    10.72360   14.22941   -6.93092
      H1    11.02508   14.67341   -6.14154
       H    12.38123    8.87501   -4.56043
       O    11.98875    9.01909   -3.70932
      H1    11.02813    8.97356   -3.86883
       H    10.34913   11.72806   -4.47378
       O     9.42708   11.83119   -4.56723
      H1     9.24226   12.81481   -4.45954
       H    10.83447   13.72303   -9.01604
       O    10.87289   13.37702   -9.95181
      H1    10.67642   12.42550   -9.90594
       H    12.84669   11.11698   -9.80949
       O    13.72043   11.44173   -9.63386
      H1    13.67313   11.64130   -8.72991
       H    14.24773    7.76144  -13.21013
       O    13.34570    7.99427  -12.97281
      H1    13.23820    7.81764  -12.05138
       H    12.04831   12.08609   -3.27445
       O    12.06315   11.71578   -4.17725
      H1    12.07529   10.73308   -4.06140
       H     9.30779    9.12629  -12.95135
       O     9.62656    8.23119  -13.33789
      H1     9.57019    8.26406  -14.33315
       H    10.49092   10.41712   -8.83099
       O    10.96817   10.58027   -9.67019
      H1    10.90569    9.68870  -10.09900
       H    14.01025   13.40457   -7.01760
       O    13.33863   12.71880   -7.04709
      H1    12.55040   13.24623   -7.24120
       H    10.27597   16.39852   -9.11491
       O     9.30695   16.18626   -9.23600
      H1     8.88784   16.65556   -8.47083
       H     9.90314    8.81773   -6.18170
       O    10.45939    8.70133   -6.97441
      H1     9.81420    8.34500   -7.63888
       H    12.14634   12.52350  -12.92224
       O    11.71560   13.38979  -12.99036
      H1    12.09275   13.93561  -12.32453
       H     8.12679    6.21195   -6.37520
       O     8.53114    5.61954   -7.02225
      H1     9.50948    5.69644   -6.94163
       H     8.76935    6.60571   -8.34098
       O     9.00685    7.31810   -8.96034
      H1     8.26651    7.95843   -8.89265
       H     7.08820    9.76853   -6.87315
       O     7.23530    9.98593   -5.96302
      H1     6.45754   10.48101   -5.61058
       H    10.68698    8.08100  -11.79983
       O    11.18935    8.08232  -10.92967
      H1    10.63653    7.58040  -10.30475
       H     8.24955   11.90283   -8.62241
       O     8.04341   11.75136   -9.58096
      H1     7.78313   12.66672   -9.92420
       H    15.58776    9.11725   -9.73280
       O    16.21893    9.74842  -10.21382
      H1    15.79775   10.64841  -10.12484
       H    12.78562   10.60478   -6.36649
       O    13.09913    9.68129   -6.60138
      H1    12.28193    9.25743   -6.84490
       H     6.98854    9.87571   -9.37395
       O     7.17176    9.27304   -8.67319
      H1     6.29121    8.82492   -8.56119
       H     6.04692    7.14469   -5.62334
       O     6.96961    7.25096   -5.41226
      H1     7.21357    8.10961   -5.68488
       H     8.07756   13.17152   -6.76491
       O     8.51304   12.31494   -7.09670
      H1     8.54568   11.75618   -6.30349
       H     5.35691    9.70360  -11.46909
       O     5.91975   10.43762  -11.69562
      H1     5.43269   11.25025  -11.38658
       H    11.74178   14.90290  -10.46653
       O    12.18198   15.72732  -10.24497
      H1    12.32960   16.34464  -10.95217
       H    13.81521    6.33703   -8.67746
       O    13.53474    5.44175   -8.78177
      H1    13.70385    5.07543   -9.65366
       H     9.97485   12.92352  -12.88053
       O     9.02580   12.62955  -12.84467
      H1     9.06206   11.72233  -12.42828
       H     9.07424    8.29640   -3.65479
       O     9.39258    8.95041   -4.37585
      H1     8.61319    9.37616   -4.76569

