108
frame 0 | Written by MDAnalysis XYZWriter (release 2.4.3)
       H    13.42944  -12.61604    4.32844
       O    12.68761  -12.47121    3.67834
      H1    12.26242  -13.26709    3.73700
       H     8.20204  -11.01260   10.80171
       O     8.76839  -11.67326   10.39092
      H1     8.32338  -12.47501   10.70115
       H    11.14061  -18.90546   11.12937
       O    11.14746  -19.77547   10.67250
      H1    11.97900  -19.92136   10.19615
       H     7.84228  -17.81469   11.93522
       O     7.43271  -18.42469   11.31652
      H1     7.69595  -19.30844   11.57462
       H     8.79596  -14.68830   13.21702
       O     9.44172  -15.32698   13.62540
      H1     9.03815  -15.58625   14.47505
       H    11.03987  -15.60562    4.35287
       O    11.91609  -15.24847    4.64610
      H1    12.47956  -16.01656    4.68562
       H    13.88136  -17.37153   14.29724
       O    13.89706  -17.84454   15.14535
      H1    13.04511  -17.73639   15.54782
       H     9.78502  -14.11124    6.40175
       O    10.33280  -14.62194    7.04531
      H1    11.10794  -14.80720    6.51875
       H    12.25001  -13.94326   15.34204
       O    11.32085  -14.03798   15.69509
      H1    10.72259  -14.09668   14.93310
       H    18.45538  -11.28110    8.59856
       O    17.72750  -11.51229    9.24187
      H1    18.10019  -12.26504    9.80643
       H    13.12877  -11.79985   14.77905
       O    13.00695  -11.13991   14.09248
      H1    12.46353  -11.56154   13.42129
       H    14.99022  -13.28701    6.20662
       O    14.89155  -13.15269    5.26122
      H1    15.43145  -12.34254    5.04926
       H    13.88310  -10.29576    7.77102
       O    14.14280  -10.46565    6.81234
      H1    14.33161  -11.42427    6.86882
       H    15.81044  -16.57988   12.47866
       O    16.36813  -17.12622   11.94888
      H1    17.23235  -17.23353   12.40607
       H    17.88473  -14.25516   11.48005
       O    18.27285  -14.00621   10.67199
      H1    19.19123  -14.17041   10.62426
       H    10.29524  -16.54929   12.43570
       O    10.78405  -17.37490   12.19883
      H1    10.53520  -17.97594   12.94578
       H    13.01424  -14.85423    9.95432
       O    13.10098  -13.90049   10.12374
      H1    12.18519  -13.58819    9.88127
       H    13.50544   -9.65930   10.14238
       O    13.69164  -10.48807    9.63737
      H1    12.96457  -11.10382    9.71532
       H     7.32526  -17.12680    8.34727
       O     7.92409  -16.95258    9.06551
      H1     7.69418  -17.56015    9.77376
       H    10.98190  -12.00928   11.49373
       O    11.60750  -12.46575   12.09130
      H1    12.32128  -12.75207   11.48412
       H    10.75978  -17.53837    7.50470
       O     9.89021  -17.98908    7.62608
      H1     9.35932  -17.52224    8.28784
       H    15.23336  -13.19201    9.17494
       O    15.61606  -12.84956    8.31992
      H1    16.39830  -12.34241    8.69000
       H    14.71152  -14.37419   15.12952
       O    14.01863  -14.10644   14.55292
      H1    14.44920  -13.86352   13.70222
       H    17.10777  -18.91387    8.82590
       O    17.26113  -19.82425    9.05573
      H1    17.42667  -19.78750   10.02559
       H     7.28550  -12.63144   12.74099
       O     7.59861  -13.49890   12.39997
      H1     6.77809  -13.90912   12.23436
       H    13.73411  -16.50095   10.69541
       O    13.88401  -16.80049    9.76982
      H1    14.74183  -16.34157    9.47232
       H    15.43643  -12.30314   12.11750
       O    15.37941  -13.26529   12.07201
      H1    14.68007  -13.48469   11.48810
       H    13.94037  -18.53362    9.11930
       O    13.86095  -19.24637    8.49874
      H1    13.91659  -20.03036    9.03467
       H    12.38215  -16.69878   12.42739
       O    13.26698  -16.24794   12.61693
      H1    12.93806  -15.52118   13.17606
       H    17.01357  -15.08325    9.62052
       O    16.52337  -15.89917    9.44523
      H1    16.67519  -16.48677   10.23417
       H    14.79043  -18.43568    5.40534
       O    15.32299  -19.02467    6.02717
      H1    14.75322  -19.03260    6.84063
       H     6.56177  -14.28266    8.39698
       O     6.87555  -14.45387    9.28917
      H1     7.47199  -15.18853    9.03949
       H    17.13525  -16.74788    7.86580
       O    17.18608  -17.29139    7.07235
      H1    16.28298  -17.51346    6.83012
       H    12.77720  -18.19771    7.58812
       O    12.50261  -17.51427    6.93936
      H1    12.22010  -17.98961    6.09779
       H    15.30139  -10.32546   10.94967
       O    15.82526  -10.32098   11.76599
      H1    15.41895   -9.71631   12.33501
       H    10.11602  -12.17930    9.15985
       O    11.00356  -12.45373    8.81891
      H1    10.86424  -13.08133    8.12182

