108
frame 11 | Written by MDAnalysis XYZWriter (release 2.4.3)
       H    -5.27021    3.73740   -4.23939
       O    -5.65012    2.84337   -4.32714
      H1    -6.17468    2.75808   -5.16346
       H    -3.83259   -6.22426    0.04782
       O    -4.13010   -7.13548    0.09761
      H1    -3.31176   -7.74616    0.23621
       H    -5.00493   -3.49300   -5.23418
       O    -4.92809   -2.58746   -4.90477
      H1    -5.70343   -2.13353   -5.38132
       H    -4.10555    3.89722    1.47813
       O    -4.03333    4.42396    0.63560
      H1    -3.37896    3.96126    0.13688
       H    -0.58173   -0.64094   -2.46149
       O    -1.24919   -0.74897   -1.77271
      H1    -0.74985   -1.28342   -1.14078
       H    -3.99441   -1.03691   -5.64785
       O    -3.09793   -0.73569   -5.66589
      H1    -2.92997   -0.46292   -4.72596
       H    -7.01748   -4.79899    5.08763
       O    -7.21128   -4.38764    4.25483
      H1    -6.48864   -3.83989    3.99257
       H    -8.68926   -1.83968    2.42440
       O    -7.76982   -1.56125    2.47750
      H1    -7.78817   -0.61701    2.23910
       H    -3.87821   -2.18095   -1.58146
       O    -3.21843   -2.67687   -2.10163
      H1    -2.54649   -2.04505   -2.38218
       H   -10.04318    0.57941    1.82701
       O    -9.54320    1.23931    1.32817
      H1    -9.52841    0.95377    0.39317
       H    -6.72301    2.16102   -7.20153
       O    -7.13773    2.02047   -6.33611
      H1    -6.91399    1.10807   -6.01839
       H    -5.38285    2.07989    2.44773
       O    -4.59317    2.68235    2.54554
      H1    -3.83310    2.08185    2.62549
       H    -1.63728   -2.38288   -5.34979
       O    -2.05255   -3.29183   -5.25088
      H1    -3.01079   -3.16916   -5.26777
       H    -5.11885   -1.72087    4.62812
       O    -5.32658   -2.16241    3.79054
      H1    -6.02848   -1.62379    3.41154
       H    -2.88968    2.17793   -3.07611
       O    -3.04702    1.85872   -3.95448
      H1    -3.96469    2.01571   -4.21790
       H    -3.62139    3.44632   -1.29332
       O    -2.65024    3.31488   -1.31748
      H1    -2.13270    4.05669   -1.61619
       H    -5.40392    0.19085   -0.52682
       O    -5.32970   -0.70541   -0.96439
      H1    -6.22576   -1.08982   -0.90960
       H    -8.61690    4.36371   -4.17137
       O    -8.04826    4.38828   -3.42095
      H1    -7.25451    3.93097   -3.69224
       H   -10.66527    1.37049   -2.42962
       O   -11.48659    1.53456   -2.98532
      H1   -11.88151    2.28229   -2.56559
       H    -2.45123   -4.52721    0.02656
       O    -3.06264   -4.27635    0.70611
      H1    -3.23282   -3.32174    0.59004
       H    -7.04663    1.14061    3.32776
       O    -6.79301    1.29981    2.35187
      H1    -7.57802    1.39725    1.85958
       H   -10.35242   -3.34555    1.60268
       O   -10.08899   -2.43159    1.75924
      H1   -10.54390   -2.18817    2.60272
       H    -7.69587   -0.54172   -5.20840
       O    -6.75278   -0.54687   -5.14480
      H1    -6.53674   -0.51056   -4.21072
       H    -8.04402   -2.42875   -1.43993
       O    -7.89941   -1.69263   -0.88502
      H1    -7.97367   -1.90505    0.02701
       H    -5.99932   -4.90037    1.86672
       O    -6.94294   -5.04903    1.66788
      H1    -7.18440   -4.97110    2.60555
       H    -0.38479   -4.35003   -0.65636
       O    -0.98592   -4.60664   -1.38829
      H1    -1.22656   -3.77843   -1.73918
       H    -1.88255   -1.58375    1.66660
       O    -0.99153   -1.52468    1.28342
      H1    -0.70336   -2.45890    1.17708
       H    -1.55698    1.02917    2.25887
       O    -2.16516    1.44109    2.89111
      H1    -2.08275    1.03802    3.74156
       H    -7.34751    5.13836    0.48169
       O    -6.77737    4.49153    0.07157
      H1    -5.93187    4.67192    0.45447
       H    -8.44855   -4.70966   -2.70874
       O    -7.88267   -4.41041   -2.00612
      H1    -7.77509   -5.15824   -1.38951
       H    -4.38600   -1.13484    2.06582
       O    -3.80597   -1.38042    1.33964
      H1    -4.18814   -0.89017    0.54368
       H    -1.30075    0.57891   -0.45016
       O    -1.16327    1.40975    0.08383
      H1    -1.75032    2.14466   -0.21304
       H    -5.76546    2.56898   -2.28828
       O    -5.52096    2.23898   -1.37277
      H1    -5.99337    2.85443   -0.84404
       H    -8.98355   -0.03883   -1.37658
       O    -9.33457    0.83343   -1.32813
      H1    -8.55837    1.37536   -1.55401
       H    -6.00452   -4.80947   -2.48662
       O    -5.13530   -5.09201   -2.80070
      H1    -4.48699   -4.35356   -2.65083
       H    -3.77534   -4.74659    2.34726
       O    -4.54399   -4.72745    2.93238
      H1    -4.58682   -3.83658    3.31265

