108
frame 10 | Written by MDAnalysis XYZWriter (release 2.4.3)
       H    17.29127   -1.62094   13.03386
       O    16.48247   -1.24973   13.38225
      H1    16.68308   -0.51520   13.97548
       H     8.52632   -3.62147   17.28985
       O     9.20124   -3.51958   16.56805
      H1     9.82929   -2.82978   16.77399
       H     7.94444   -7.10347   19.70400
       O     8.70474   -7.73684   19.77665
      H1     8.54613   -8.41380   19.10115
       H    16.05704   -2.13930   17.14054
       O    16.18588   -1.28317   16.69130
      H1    15.34571   -0.81485   16.65919
       H    16.64944    1.58426   15.42026
       O    17.17485    0.81909   15.17972
      H1    17.19937    0.25166   15.98140
       H     9.82002   -1.40040   19.04905
       O     9.84954   -1.77397   19.94540
      H1    10.65209   -2.33821   19.97818
       H    13.05955  -10.93623   15.15302
       O    14.00132  -10.73081   15.22678
      H1    14.25288  -10.23281   15.99931
       H    11.41958   -7.22769   14.21908
       O    11.80260   -8.14082   13.94804
      H1    11.00089   -8.58321   13.61606
       H    13.79806   -7.89576   16.55507
       O    14.23549   -7.59478   15.73895
      H1    13.55145   -7.65035   15.09658
       H    12.82412   -4.00741   18.36611
       O    13.40255   -4.66154   17.87110
      H1    14.27280   -4.33745   18.12051
       H    16.47842   -4.21568   18.77311
       O    15.76531   -3.62097   18.50410
      H1    15.91515   -2.83629   19.01517
       H    10.20063   -5.63602   15.65025
       O    10.88051   -5.63317   14.92825
      H1    11.69798   -5.17578   15.30850
       H    14.60777  -10.58384   18.76937
       O    15.27466  -10.28941   18.11057
      H1    16.10794  -10.46380   18.50214
       H    13.40225   -9.27265   18.06436
       O    13.06229   -8.38586   17.98269
      H1    12.15232   -8.43957   17.92782
       H    18.85013   -3.65488   15.02631
       O    18.00725   -4.08956   14.89718
      H1    17.33281   -3.48346   14.59807
       H    15.52505   -6.83372   11.96686
       O    14.59079   -6.53815   11.88395
      H1    14.52954   -5.80060   12.47413
       H    18.27671   -0.04490   19.70977
       O    17.85754   -0.86092   19.34700
      H1    17.59738   -0.70652   18.43216
       H    10.51523   -0.92092   16.91505
       O    11.32949   -1.44414   16.99400
      H1    11.63953   -1.62173   16.11689
       H     7.52773   -4.87644   14.23191
       O     7.67262   -3.90210   14.25535
      H1     8.20029   -3.81389   15.06153
       H    19.82859   -8.04718   19.94436
       O    19.47357   -7.89933   19.06547
      H1    18.86712   -8.55744   18.80068
       H    17.72781    1.55890   18.74753
       O    18.46330    1.51900   18.13948
      H1    19.03238    2.28401   18.38655
       H    12.77875    0.84770   18.14662
       O    12.70701    1.13076   19.07493
      H1    13.06377    0.34079   19.47196
       H     9.87779   -6.27029   18.43367
       O    10.42484   -6.39719   17.62458
      H1    11.28320   -6.54315   18.03798
       H    12.50603   -3.28701   15.15568
       O    13.16719   -4.04073   15.36024
      H1    13.15447   -4.14747   16.33336
       H    17.54094   -7.88775   14.05926
       O    16.83959   -8.55264   13.92864
      H1    16.19677   -8.29064   14.60491
       H    15.98948   -6.84234   15.75304
       O    16.86077   -6.41327   15.82767
      H1    16.97052   -5.66898   15.14879
       H    17.82403   -5.52380   11.90158
       O    17.23001   -4.75915   11.72224
      H1    16.56698   -4.63353   12.42372
       H     8.81645    0.11545   18.42350
       O     8.85823   -0.33775   17.60158
      H1     8.70679    0.38414   16.93627
       H    14.29809    2.16702   16.69199
       O    14.98817    2.80191   16.76119
      H1    14.49294    3.61530   16.95781
       H    18.89365   -5.96061   14.03966
       O    19.24009   -6.56688   13.38362
      H1    20.13389   -6.70811   13.69065
       H    12.68576   -0.17183   16.37419
       O    13.50976    0.42393   16.37531
      H1    13.78971    0.73596   15.46628
       H    14.46328   -3.90778   14.35942
       O    15.11762   -3.71545   13.63357
      H1    15.50023   -2.84327   13.71682
       H    12.31744   -3.84363   11.59786
       O    13.25691   -3.46035   11.34631
      H1    13.76647   -3.54036   12.15785
       H    18.20142   -6.23433   18.72952
       O    17.61228   -5.58228   18.33351
      H1    17.28471   -5.98428   17.48532
       H    10.13649   -4.83186   12.17000
       O    11.07544   -5.03500   12.35646
      H1    11.07890   -5.19921   13.31305
       H    10.87971   -1.45468   14.40184
       O    11.48563   -2.16941   14.24197
      H1    11.91054   -1.83709   13.41636

