108
frame 7 | Written by MDAnalysis XYZWriter (release 2.4.3)
       H     8.17241  -12.00278    8.26086
       O     8.63674  -12.85203    8.06516
      H1     8.09505  -13.45382    8.57447
       H     4.92181   -7.19996    2.87614
       O     5.19201   -6.64778    2.11811
      H1     4.57061   -6.98997    1.46918
       H     5.61308   -8.74084   10.01358
       O     5.53368   -9.34905   10.73596
      H1     6.34708   -9.85743   10.66959
       H     0.69949   -8.58795    1.87067
       O     0.64156   -8.40673    0.91795
      H1     1.48587   -7.95478    0.67285
       H     8.97916   -8.84186    6.57844
       O     8.19743   -8.80189    5.96353
      H1     8.46397   -8.31735    5.23735
       H     8.15910  -11.54897   11.13146
       O     7.74998  -11.03267   10.43910
      H1     8.50111  -10.68240    9.98147
       H     1.83337  -13.51038    7.94322
       O     2.27698  -13.01918    8.66403
      H1     2.61557  -12.15863    8.27338
       H     4.29976   -7.76047    6.15591
       O     4.38981   -6.96192    6.73346
      H1     4.49036   -6.32790    6.02602
       H     5.49309   -7.82024    7.84390
       O     6.22298   -8.02506    8.41318
      H1     6.98408   -8.25702    7.84471
       H     7.44982  -13.58133    6.10267
       O     7.30888  -14.18743    5.38992
      H1     7.48606  -13.80707    4.52263
       H     1.73595   -6.80959    3.84245
       O     1.05660   -7.42934    3.54096
      H1     0.80747   -7.81662    4.36604
       H     6.66059   -6.33957    1.19881
       O     7.29326   -5.93956    0.57473
      H1     7.29855   -4.95936    0.70482
       H     4.59257  -10.63956    2.06299
       O     5.52204  -10.97580    1.97703
      H1     6.10579  -10.21707    1.88684
       H     2.81070  -10.66048    3.50194
       O     3.05301   -9.91763    2.95076
      H1     2.40552   -9.15335    3.00775
       H     8.72908  -12.91552    2.59969
       O     7.97781  -13.50878    2.78983
      H1     7.20398  -13.21172    2.33992
       H     3.74883   -4.35682    5.27117
       O     4.23181   -4.86164    4.67772
      H1     3.71874   -4.86894    3.81897
       H     8.42729   -8.73029    1.07227
       O     7.81462   -9.38199    1.28590
      H1     7.76803   -9.99693    0.50464
       H    -0.04255  -13.37078    5.36353
       O     0.64614  -13.11428    6.01583
      H1     1.39218  -12.91061    5.45383
       H     4.79671  -16.25227    1.59832
       O     4.60752  -15.46142    2.17053
      H1     4.90722  -14.61752    1.78121
       H     9.96766   -7.49530    4.41712
       O     9.17621   -7.38211    3.87749
      H1     9.47756   -7.25541    2.99379
       H     5.94940  -11.76849    9.78706
       O     5.23998  -12.34410    9.43061
      H1     5.64931  -13.23263    9.54353
       H     7.09270   -4.64189    9.29260
       O     7.64390   -5.49634    9.27796
      H1     7.03088   -6.22149    9.07339
       H     7.19127  -10.28978    5.45293
       O     6.66734  -11.05829    5.15565
      H1     6.75815  -11.16611    4.21327
       H     9.29588  -10.52517    2.56361
       O     9.77464  -11.30511    2.75911
      H1    10.29840  -11.20308    3.59052
       H     5.69267  -12.06555    6.23155
       O     4.87640  -12.49301    6.61589
      H1     4.98922  -12.42976    7.57955
       H     7.11647   -5.18151    3.47566
       O     7.71716   -5.07784    4.23482
      H1     8.31860   -5.78798    4.26008
       H     3.07937   -7.64406    7.75216
       O     2.77974   -8.23033    8.45686
      H1     1.86645   -8.09434    8.66420
       H     0.31858   -9.57004    5.94936
       O     1.18788   -9.82032    5.49951
      H1     1.74293  -10.13130    6.22686
       H     3.64413  -11.18210    6.85499
       O     2.85810  -10.86924    7.35163
      H1     3.08224  -10.04955    7.79537
       H     5.13575  -14.50282    5.00459
       O     4.33157  -14.94198    4.71890
      H1     4.46264  -15.15180    3.77621
       H     4.01440   -9.22533    4.44510
       O     4.74803   -9.01800    5.00028
      H1     5.30407   -9.78221    5.14924
       H     3.93340   -8.38090   -0.52457
       O     3.92535   -7.45413   -0.35443
      H1     3.38942   -6.89368   -0.94080
       H     0.35705  -10.66961    4.02318
       O     0.31240  -11.39270    3.33589
      H1    -0.47936  -11.17190    2.85440
       H     3.41322  -13.26978    4.59768
       O     3.10624  -12.55643    4.03106
      H1     2.53153  -12.93243    3.31456
       H     9.67354   -9.06195    9.19356
       O     9.25517   -9.61168    8.47570
      H1     9.84155  -10.40618    8.46861
       H     5.05588  -10.40386    0.29307
       O     4.64913  -10.16320   -0.58805
      H1     4.05493  -10.94518   -0.77591

