108
frame 10 | Written by MDAnalysis XYZWriter (release 2.4.3)
       H     3.85361   -4.82434   -5.01299
       O     4.66661   -5.24060   -4.70124
      H1     5.05590   -5.41305   -5.55659
       H     7.40056   -6.79891  -12.44548
       O     7.97161   -5.96639  -12.66650
      H1     8.50506   -5.87198  -11.88938
       H     1.59808   -8.04298   -3.66101
       O     2.44573   -7.62807   -3.50543
      H1     2.68161   -7.41826   -4.41493
       H     8.27411   -8.36440  -11.58984
       O     7.76511   -8.20832  -10.72522
      H1     8.35684   -7.56657  -10.33840
       H     3.56370   -4.54507   -9.35873
       O     2.80280   -4.72997   -9.86033
      H1     2.87519   -5.61464  -10.29161
       H     5.74127  -12.94547  -12.95479
       O     4.91012  -12.63604  -12.59548
      H1     4.65016  -11.94600  -13.18813
       H     1.54030   -4.79537   -5.26717
       O     2.20228   -4.05214   -5.28962
      H1     2.18887   -3.81638   -4.32775
       H    -0.75687   -5.72409   -9.57203
       O    -1.35180   -6.47871   -9.87014
      H1    -2.25339   -6.10490   -9.99582
       H     3.63126   -9.24533   -9.02343
       O     3.49889   -8.36799   -9.42908
      H1     4.30871   -7.90944   -9.26532
       H     1.43034   -4.97542   -8.80064
       O     0.55842   -4.99462   -8.31705
      H1     0.84211   -5.05005   -7.42838
       H     5.47817   -3.38426   -8.30527
       O     4.56701   -3.30350   -7.98306
      H1     4.06102   -2.64440   -8.46281
       H     5.22611  -12.64899   -8.44256
       O     5.87184  -12.51881   -7.72453
      H1     5.24874  -12.38869   -6.96928
       H     6.87617   -6.78454   -7.14666
       O     6.16005   -6.19885   -6.95183
      H1     6.47925   -5.35938   -7.32582
       H     4.05666  -11.63629   -5.03496
       O     3.87467  -12.12675   -5.84431
      H1     3.90367  -13.06658   -5.63771
       H     2.98643  -11.11871   -7.12640
       O     2.89135  -10.70293   -8.01431
      H1     2.05602  -10.89242   -8.33488
       H     7.72879   -3.40675   -8.13223
       O     7.18820   -4.01880   -8.59002
      H1     7.03983   -3.59435   -9.44527
       H     4.60064   -8.07378   -6.41550
       O     3.68820   -7.96851   -6.04411
      H1     3.11908   -8.41204   -6.65988
       H     9.22321  -10.91999   -8.15836
       O     9.94167  -11.50107   -7.96402
      H1    10.16263  -11.98859   -8.76772
       H     1.90742   -7.83377   -7.90551
       O     1.22601   -8.05589   -7.19180
      H1     0.48433   -8.45543   -7.59988
       H     2.95913   -7.72768  -11.00701
       O     2.73029   -6.98846  -11.57870
      H1     1.77859   -7.04530  -11.74230
       H     0.73335  -11.10454  -10.82718
       O     0.81214  -11.47038   -9.95584
      H1     0.28934  -10.78808   -9.53666
       H     6.92317   -8.99238  -14.40144
       O     6.15262   -9.20065  -14.96557
      H1     5.45954   -9.49639  -14.45039
       H     9.39051   -8.06586   -7.16531
       O     8.99253   -7.21326   -7.48912
      H1     9.41222   -6.96539   -8.29951
       H    -0.92730   -8.63067   -9.02821
       O    -0.81357   -9.33743   -8.42237
      H1    -1.35436   -9.18998   -7.60725
       H     3.23617   -9.95879  -14.23291
       O     3.25119  -10.91422  -14.32593
      H1     2.36999  -11.15772  -13.94874
       H     7.17792  -10.72060   -8.89110
       O     7.79959   -9.98680   -8.72723
      H1     7.86856   -9.47405   -9.51586
       H     2.55847   -7.69519  -14.63661
       O     3.23637   -8.10670  -13.99953
      H1     3.09773   -7.59862  -13.20086
       H     4.68289   -5.81459  -12.74247
       O     5.33349   -6.14306  -13.37527
      H1     4.87712   -6.91910  -13.75570
       H     3.58613  -11.96559   -9.48845
       O     3.92904  -12.79428   -9.85863
      H1     4.15813  -12.60384  -10.79504
       H     0.46524   -6.87730   -6.27826
       O     0.35974   -6.02855   -5.71108
      H1    -0.29871   -6.14326   -5.01894
       H     4.43426   -9.58099   -4.67963
       O     4.00691  -10.10134   -3.98737
      H1     3.32525   -9.46846   -3.75252
       H    -0.51218   -6.84609  -11.46501
       O    -0.12099   -6.98645  -12.31947
      H1    -0.51031   -7.83502  -12.64561
       H    10.08352   -5.51136  -10.15427
       O     9.16167   -5.76598   -9.89497
      H1     8.76185   -4.95275   -9.63100
       H     6.95406   -9.43842   -7.11390
       O     6.47395   -9.04335   -6.41077
      H1     6.95025   -9.38685   -5.65634
       H     5.62530   -6.44638   -8.62617
       O     5.45555   -6.67535   -9.59639
      H1     6.21477   -7.16918   -9.83979
       H     0.42321  -11.79039  -13.28469
       O     0.83508  -11.02931  -12.82205
      H1     0.12636  -10.36970  -12.91014

