108
frame 3 | Written by MDAnalysis XYZWriter (release 2.4.3)
       H   -18.46283  -15.60925   -9.75184
       O   -19.20807  -15.32390  -10.31846
      H1   -18.81054  -15.38468  -11.25093
       H   -18.34340  -12.36447  -10.94761
       O   -17.43351  -12.44681  -11.33197
      H1   -16.96893  -11.61014  -11.14768
       H   -17.43057   -5.55170  -14.80405
       O   -18.26958   -5.08419  -14.89241
      H1   -18.80238   -5.54757  -14.21301
       H   -12.91616   -6.49236   -9.57514
       O   -13.63568   -5.91006   -9.23752
      H1   -13.24333   -5.05855   -9.46709
       H   -13.17538   -9.51658  -10.15929
       O   -13.65518   -9.69861  -10.97318
      H1   -14.61722   -9.69496  -10.76200
       H   -17.30084  -15.98925   -7.41926
       O   -16.93715  -16.43035   -8.19637
      H1   -16.55926  -15.69279   -8.67511
       H   -16.96062  -12.33585  -16.24568
       O   -17.43493  -12.98045  -15.64456
      H1   -17.50346  -12.36731  -14.91812
       H   -14.24242  -10.30630  -12.65853
       O   -14.59528  -10.87338  -13.37718
      H1   -15.02705  -10.23509  -13.92376
       H   -14.58634   -5.16967   -7.38708
       O   -14.81790   -4.54750   -6.65681
      H1   -14.89930   -3.66406   -7.11657
       H   -14.65890   -9.93613  -16.54134
       O   -13.94960   -9.49698  -16.00357
      H1   -13.66116  -10.18195  -15.41230
       H   -16.81143   -9.12964  -11.24885
       O   -16.45575   -9.90112  -10.81290
      H1   -16.89823  -10.05751   -9.97828
       H   -13.87412  -12.04040  -12.31854
       O   -13.68836  -12.70470  -11.59112
      H1   -12.77026  -12.60667  -11.39713
       H   -12.64120   -9.83317   -8.09978
       O   -12.71828   -8.95373   -8.57687
      H1   -13.35540   -8.50033   -8.00097
       H   -19.01153   -7.68275   -9.05091
       O   -18.32996   -8.12383   -8.48075
      H1   -18.57632   -7.98953   -7.54447
       H   -17.51867  -14.93065  -12.89080
       O   -18.43324  -15.17724  -12.97921
      H1   -18.42596  -15.65194  -13.86035
       H   -11.67962   -7.86187   -9.31465
       O   -11.15883   -7.22322   -9.86993
      H1   -11.54990   -7.42767  -10.72564
       H   -16.60793  -10.90061  -17.55927
       O   -16.29274  -10.81838  -16.65368
      H1   -16.93164  -10.28459  -16.17897
       H   -15.20460   -5.78367  -14.67312
       O   -15.90844   -5.80647  -14.03077
      H1   -16.00797   -6.68494  -13.69822
       H   -15.59476   -8.11115   -5.40856
       O   -15.01893   -7.37160   -5.14467
      H1   -14.29709   -7.29617   -5.81117
       H   -13.11768   -6.40664   -7.77398
       O   -12.92262   -6.78636   -6.91472
      H1   -12.45805   -6.05617   -6.42022
       H   -14.11824  -13.42454  -15.75692
       O   -14.93281  -13.94297  -15.56999
      H1   -15.58163  -13.30101  -15.25929
       H   -16.68633  -10.22625   -6.47082
       O   -16.63665   -9.63950   -5.73698
      H1   -17.49899   -9.16040   -5.81454
       H   -10.43980  -11.50726  -11.93843
       O   -10.92054  -11.92478  -11.17992
      H1   -10.73754  -12.92707  -11.20072
       H   -13.10846   -8.40158  -11.79696
       O   -12.97576   -7.49001  -12.14755
      H1   -12.39692   -7.67864  -12.92804
       H   -15.23064  -13.98206  -12.18045
       O   -15.64386  -14.70501  -12.75940
      H1   -15.43181  -14.55538  -13.68561
       H   -18.30468   -7.32789  -12.16796
       O   -17.39073   -7.42396  -11.94871
      H1   -17.14891   -6.64135  -11.57461
       H   -17.69133  -10.33005  -13.73962
       O   -17.97675  -11.22214  -13.62036
      H1   -17.64147  -11.49091  -12.76698
       H   -18.34968   -8.67816  -15.47184
       O   -17.45513   -8.89528  -15.11370
      H1   -16.96044   -8.20043  -15.60382
       H   -19.38428   -7.94161   -4.94554
       O   -18.88137   -7.81879   -5.75251
      H1   -18.38887   -6.97300   -5.61260
       H   -11.60100  -11.81968   -7.64354
       O   -12.37579  -11.25968   -7.50902
      H1   -13.15902  -11.69517   -7.82609
       H   -15.43317  -12.80482   -8.47029
       O   -15.11526  -12.00454   -7.97632
      H1   -15.95613  -11.55492   -8.05418
       H   -15.07817  -14.41536   -9.67034
       O   -15.91298  -14.08263   -9.40855
      H1   -16.29297  -13.53381  -10.13996
       H   -13.02777  -15.26378  -10.19723
       O   -13.88063  -15.60930   -9.93188
      H1   -13.72923  -16.04591   -9.06335
       H   -18.23149  -11.21929   -8.02526
       O   -17.55204  -10.58697   -8.33404
      H1   -17.94328   -9.65851   -8.36336
       H   -14.55927  -13.38825   -6.51206
       O   -14.03335  -14.03032   -5.88806
      H1   -13.75064  -13.47521   -5.15322
       H   -15.90120   -4.87412  -12.32437
       O   -15.63804   -5.04080  -11.39916
      H1   -15.13617   -5.86862  -11.26859

