108
frame 10 | Written by MDAnalysis XYZWriter (release 2.4.3)
       H    15.35693    7.67194   -6.80881
       O    15.15532    8.51163   -7.18281
      H1    14.55650    8.88301   -6.51327
       H    14.80527   12.12027    4.66975
       O    15.69725   11.88624    4.39177
      H1    15.60903   11.83580    3.43166
       H    15.00557    2.97749    2.19233
       O    15.33887    3.65673    1.56994
      H1    16.03877    3.29056    0.99898
       H    18.23487    5.97966    3.19933
       O    18.72940    6.24261    2.42588
      H1    19.15365    5.47669    2.04508
       H    16.15372   11.40381   -3.82191
       O    15.60675   11.96549   -4.43181
      H1    14.77348   12.07296   -4.00773
       H    13.52142    8.21891    2.05630
       O    13.39694    7.30395    1.97022
      H1    13.30629    7.14009    1.01322
       H    18.83603   10.17894   -3.82940
       O    18.52973    9.96228   -2.95800
      H1    18.98683   10.64600   -2.45488
       H    14.60335    2.93136   -5.62417
       O    14.00963    3.06934   -4.84869
      H1    13.69448    3.93739   -4.88897
       H    16.40936   13.62571    3.47177
       O    16.54785   14.09612    2.62667
      H1    16.28407   13.51181    1.88612
       H    12.68415    9.45438   -3.62152
       O    13.04357    9.33725   -2.72809
      H1    12.77606    8.45372   -2.51116
       H    10.70037    3.95561   -1.91943
       O    11.66070    4.12945   -2.10291
      H1    12.05951    3.64599   -1.36298
       H    17.37548    5.97297   -6.13401
       O    17.00408    5.80556   -5.26712
      H1    17.54625    5.09014   -4.90407
       H    16.80808    2.00010   -0.83583
       O    17.06980    2.89504   -0.68363
      H1    18.00572    2.90531   -0.70135
       H    14.38812    0.04407   -0.40185
       O    14.16678    0.54154   -1.19547
      H1    14.19987    1.47677   -1.01072
       H    18.60236    8.28380    3.56253
       O    18.72341    8.59816    4.44159
      H1    19.34553    7.98004    4.88679
       H    16.58015    8.35768    4.71469
       O    15.77591    8.50011    4.20200
      H1    15.28793    7.72687    4.42181
       H    17.71177   10.27422   -6.49399
       O    17.44514   11.12335   -6.97117
      H1    16.60416   11.30818   -6.61659
       H    19.29741   10.67551    0.41576
       O    19.48911    9.81843    0.75082
      H1    18.99576    9.21724    0.18219
       H    12.79942   12.83503   -1.96665
       O    13.02624   12.41162   -2.81846
      H1    13.50389   11.56546   -2.73945
       H    13.25654    7.22955    4.11797
       O    13.38248    6.61321    4.84628
      H1    13.06479    7.06401    5.62996
       H    15.79612    3.58813   -2.29008
       O    14.82726    3.53135   -2.38724
      H1    14.62787    3.25456   -3.30186
       H    12.54615    5.22653   -3.64913
       O    12.65737    5.50089   -4.57234
      H1    13.28715    6.24141   -4.43938
       H    17.76098    2.70137   -3.94874
       O    18.16863    3.59425   -3.84378
      H1    18.84897    3.56168   -4.56157
       H    17.52211    5.82956   -8.13695
       O    18.30095    5.82928   -7.61472
      H1    18.78563    6.53581   -7.95496
       H    13.31274   10.93406   -5.84097
       O    13.26385   10.06548   -5.40237
      H1    12.34368    9.66148   -5.57231
       H    17.09274    3.51222    3.16206
       O    17.83689    3.65520    3.82208
      H1    17.45330    3.40303    4.67130
       H    18.53444    0.95219   -4.24734
       O    17.64431    1.02588   -4.50084
      H1    17.16564    0.39304   -3.92486
       H    18.21066    7.97576   -3.24413
       O    18.44993    7.02208   -3.44630
      H1    17.78609    6.71807   -4.10240
       H    10.91539    8.33948    3.16657
       O    10.84981    7.50196    2.73685
      H1    11.75037    7.24359    2.51884
       H    16.07011    8.03012   -0.04738
       O    15.20545    8.11587   -0.56178
      H1    14.82135    7.20584   -0.50378
       H    16.86115   10.38041   -1.51028
       O    16.01805   10.75157   -1.18727
      H1    15.51328    9.93687   -1.16912
       H    15.39569    6.65672   -4.36506
       O    14.66982    7.27502   -4.42360
      H1    14.92801    8.07438   -3.90686
       H    14.52219   13.03743    0.27530
       O    15.28071   12.61358    0.67995
      H1    15.65123   11.99920    0.01651
       H    14.63626   10.79182    1.77946
       O    14.22445   10.12947    2.35671
      H1    14.99640    9.71488    2.71256
       H    13.95026    4.98037   -1.07832
       O    13.76543    5.12958   -0.17563
      H1    14.45186    4.63363    0.31468
       H    18.27128    6.94419    0.75856
       O    18.18077    7.59473   -0.02018
      H1    18.50607    7.08599   -0.72219

