108
frame 5 | Written by MDAnalysis XYZWriter (release 2.4.3)
       H     9.16579    5.46414  -10.31527
       O     9.86412    5.56120   -9.68342
      H1     9.50684    5.34421   -8.83395
       H    12.03972    9.24038  -14.25990
       O    12.02364    9.98990  -14.84526
      H1    12.82136   10.54079  -14.65639
       H    18.72771    5.88417   -9.87135
       O    19.03854    6.75399   -9.67669
      H1    18.96123    7.20955  -10.58894
       H    12.34157    5.67531   -7.02482
       O    12.04862    4.79823   -6.74369
      H1    12.03195    4.88217   -5.79705
       H    15.07286   10.04108   -8.66326
       O    14.98889    9.79834   -9.59650
      H1    14.13086   10.17154   -9.89677
       H    13.38159   -0.22338  -10.72813
       O    12.63609    0.32019  -10.42587
      H1    11.82605   -0.18583  -10.47381
       H    14.49803    3.61939   -5.40559
       O    14.50867    3.90127   -4.47157
      H1    13.83579    4.60226   -4.47532
       H    13.28090    6.41772  -15.70375
       O    13.73284    7.00680  -16.34574
      H1    14.30186    6.42580  -16.82826
       H    12.34453    4.45312  -12.74644
       O    12.68203    4.56638  -11.87562
      H1    12.36846    5.40115  -11.59393
       H    11.13661    6.13279  -14.68827
       O    11.99662    5.64497  -14.70259
      H1    11.70796    4.64716  -14.80832
       H    13.65946    8.69443  -12.52926
       O    12.69500    8.74831  -12.46692
      H1    12.46645    8.05697  -11.82612
       H     8.91095    4.38833  -14.06727
       O     9.22626    4.80892  -13.27062
      H1     9.64172    5.63860  -13.65324
       H     9.64338    8.66808   -8.36760
       O    10.09753    9.03217   -9.16312
      H1    10.38470    8.16981   -9.58804
       H    19.07775    4.10526  -11.10540
       O    18.36730    4.08400  -10.46452
      H1    17.76163    3.50779  -10.93968
       H     8.27870    2.12839  -11.31884
       O     8.76295    2.10482  -12.21033
      H1     8.92743    3.03203  -12.29915
       H    18.12254    7.10535  -13.20105
       O    18.68661    6.89641  -12.44926
      H1    18.94147    5.95440  -12.64588
       H    15.48973    8.03876  -11.51496
       O    15.40818    7.88472  -12.45607
      H1    16.13597    8.37058  -12.89511
       H    17.38584    5.33377  -14.95239
       O    17.16526    4.42665  -14.64034
      H1    16.23657    4.38164  -14.75035
       H    15.40210    1.19192  -12.96712
       O    14.90778    0.48059  -13.25845
      H1    13.92906    0.55581  -13.18081
       H     9.00522    5.50287   -6.38563
       O     9.38491    4.92083   -7.04982
      H1    10.31067    4.77868   -6.83023
       H    11.36970    6.27432   -9.85035
       O    12.12641    6.85646  -10.00359
      H1    12.68455    7.09173   -9.23491
       H     9.26452    8.08054  -14.79363
       O     9.78840    7.51486  -14.20424
      H1     9.87436    7.94509  -13.31297
       H    16.72594    3.52519  -12.91321
       O    16.30811    2.85174  -12.31992
      H1    15.75290    3.49663  -11.83406
       H    12.09267    2.42617  -15.19529
       O    11.52369    2.94382  -14.53625
      H1    10.61467    2.60004  -14.79214
       H    17.12103    9.42556  -10.13551
       O    18.01547    9.68921  -10.33319
      H1    17.87352   10.38473  -10.94983
       H    16.94607    7.25879   -7.38671
       O    17.13230    7.71364   -6.56695
      H1    18.07811    7.72135   -6.50772
       H    11.98661    1.51020   -6.45326
       O    11.52376    1.52210   -7.31352
      H1    12.21773    1.92644   -7.86107
       H    17.05030    6.81461  -16.04066
       O    17.74846    6.97029  -15.37992
      H1    17.73877    7.93860  -15.24266
       H    14.33183    3.75601   -7.63397
       O    15.01661    3.54440   -7.08380
      H1    15.13556    2.59733   -7.24572
       H    16.73609    3.70948   -7.89112
       O    17.63646    3.45758   -7.89718
      H1    17.79461    3.46613   -8.88120
       H    15.83000    0.64369   -8.44402
       O    15.19505    0.88117   -7.73867
      H1    14.44096    0.30565   -7.90353
       H    15.47719    5.62153  -11.96741
       O    15.36444    5.02985  -11.16558
      H1    14.36390    4.92234  -11.10224
       H    11.66854    1.69484  -13.18521
       O    11.91154    0.75309  -13.01521
      H1    12.16578    0.74569  -12.05777
       H    12.12897    3.15202   -9.40115
       O    12.98295    2.67941   -9.20255
      H1    12.96941    2.04633   -9.93612
       H    13.55235    7.90099   -7.38914
       O    13.56400    6.97804   -7.57842
      H1    14.50901    6.72255   -7.53302
       H    17.23237    6.69833   -9.29667
       O    16.30339    6.64735   -9.02617
      H1    15.88905    6.20010   -9.75820

