108
frame 8 | Written by MDAnalysis XYZWriter (release 2.4.3)
       H    -2.90585    3.43304   -2.59405
       O    -3.44754    3.09257   -3.34851
      H1    -4.33726    3.34898   -3.19042
       H    -0.83198    3.73262    0.06016
       O    -0.46254    3.07236   -0.59599
      H1    -0.44609    2.18698   -0.13468
       H    -6.60832    3.52831   -4.54999
       O    -6.10358    3.26706   -3.74469
      H1    -6.58165    2.43315   -3.43049
       H    -0.79346   -2.45372   -3.91901
       O    -1.70692   -2.29593   -3.67463
      H1    -1.66102   -1.76303   -2.88084
       H    -4.85698   -0.95506   -5.94477
       O    -5.08137   -0.33298   -5.23387
      H1    -4.42091    0.35895   -5.19847
       H    -0.44565    8.03912   -5.31715
       O    -1.02747    7.80256   -6.06959
      H1    -1.35683    8.72102   -6.24644
       H    -0.43340    5.09295   -6.61007
       O     0.08151    5.22989   -7.42927
      H1    -0.35056    4.70086   -8.08364
       H     0.73182    0.77292   -5.58293
       O     0.54302    1.66909   -5.90545
      H1     0.02826    1.52968   -6.68764
       H     1.83860    5.04148    0.94072
       O     2.44980    4.46389    1.33354
      H1     2.25706    3.55831    0.96331
       H    -1.87542    7.45598   -0.91525
       O    -2.67102    7.27559   -0.39524
      H1    -3.36602    7.08647   -0.99593
       H     1.74783    0.95876    0.04009
       O     2.21515    1.74377    0.30999
      H1     2.85532    1.29471    0.89374
       H    -4.45938    6.37915   -3.10005
       O    -4.74970    6.62258   -2.21723
      H1    -5.37848    5.96581   -1.94966
       H    -2.01498    5.81840    0.18331
       O    -1.75398    4.98676    0.61259
      H1    -1.73928    5.15085    1.58989
       H     1.98310   -1.75191   -0.79273
       O     2.57329   -2.53403   -0.90575
      H1     3.11794   -2.20214   -1.63434
       H     0.21185    6.19621   -1.72704
       O     0.25513    5.30736   -2.10661
      H1    -0.05063    4.68583   -1.41067
       H     2.14299   -0.47865   -4.25265
       O     1.24957   -0.64654   -4.62579
      H1     1.29518   -1.58319   -4.96198
       H     4.62450    4.01499   -7.63610
       O     3.71959    4.14958   -7.96036
      H1     3.19130    3.39499   -7.76436
       H    -0.42716    2.80950   -9.15148
       O     0.43529    3.16705   -9.17512
      H1     0.49726    3.55663  -10.10356
       H    -3.85964    1.72668    0.88998
       O    -4.16219    1.16098    1.50726
      H1    -4.91175    0.77898    1.04796
       H     2.80384    2.85017   -2.96843
       O     2.92325    1.96451   -2.56611
      H1     2.87505    2.21861   -1.65768
       H     3.49324    7.56932   -1.12293
       O     3.67674    7.44323   -2.05187
      H1     3.37758    6.54556   -2.28005
       H    -2.29598   -0.37716   -4.52192
       O    -2.48507    0.51866   -4.83226
      H1    -2.26576    1.21341   -4.22162
       H    -2.34147    0.59491   -1.98050
       O    -1.38968    0.26549   -2.09603
      H1    -1.13662    0.83560   -2.85692
       H    -3.94228    5.51168   -5.41418
       O    -3.40759    5.79167   -4.70176
      H1    -2.80557    5.05809   -4.57865
       H    -4.99788   -0.60834   -1.02310
       O    -5.21739   -0.81824   -0.12681
      H1    -6.08709   -1.33857   -0.18778
       H     5.26487    0.69921   -4.73230
       O     4.42084    0.25924   -4.72190
      H1     4.03422    0.74778   -3.99614
       H     0.17572    2.28413   -2.73301
       O    -0.39024    2.31286   -3.51728
      H1     0.05998    2.05468   -4.29457
       H     3.60497    1.03580   -6.03139
       O     3.20789    1.55394   -6.81006
      H1     2.29337    1.73280   -6.60674
       H     2.46461    4.51024   -4.16976
       O     2.72634    4.86800   -3.33013
      H1     1.89861    4.90379   -2.76636
       H    -1.02211    0.27438    1.23348
       O    -1.34252    1.17741    1.08234
      H1    -2.28295    0.93015    1.22671
       H    -4.51142    3.97786   -0.01262
       O    -3.72306    3.61340   -0.46199
      H1    -2.95173    4.03932   -0.03409
       H    -3.37796    4.77117   -7.45645
       O    -2.80183    4.05783   -7.73331
      H1    -2.66101    4.24133   -8.67636
       H    -0.77018    3.80990   -4.32879
       O    -0.83552    4.65876   -4.74684
      H1    -0.62079    5.22814   -3.97796
       H     0.39666   -0.94498    0.37544
       O     0.69557   -0.42851   -0.40697
      H1    -0.09908   -0.14460   -0.92639
       H    -3.63266    0.27581   -3.03474
       O    -4.12587    0.67550   -2.28336
      H1    -4.08837    1.63266   -2.53694
       H    -2.00518    0.98796   -6.89178
       O    -1.72695    1.45051   -7.66270
      H1    -2.37598    2.18494   -7.61139

