108
frame 10 | Written by MDAnalysis XYZWriter (release 2.4.3)
       H   -13.71267   15.53516    3.51432
       O   -13.86890   15.58034    4.48825
      H1   -14.50344   16.31848    4.55193
       H   -12.97888   17.57282   -0.59253
       O   -13.60324   18.26877   -0.40059
      H1   -13.27477   18.75090    0.39066
       H   -12.05296   15.50346    0.12838
       O   -12.12097   16.07104   -0.66052
      H1   -12.79959   15.72065   -1.23150
       H    -9.27632   19.51848    1.13967
       O    -9.93614   18.97068    0.68557
      H1   -10.49756   18.59861    1.39919
       H   -13.07138   15.61819   -3.62666
       O   -13.81280   15.20278   -3.16779
      H1   -14.57075   15.82946   -3.11375
       H    -7.31376   12.00237   -3.97274
       O    -7.16427   12.81993   -4.39477
      H1    -7.33253   12.76035   -5.36061
       H    -8.71842   13.03133   -0.46504
       O    -8.11480   12.35967   -0.20436
      H1    -7.27481   12.87360   -0.13982
       H   -13.92546   17.39116    2.74456
       O   -14.49671   17.99922    3.18670
      H1   -15.27296   17.96960    2.67117
       H    -7.20096   19.50445   -2.76251
       O    -8.03834   19.31831   -3.19807
      H1    -8.67687   19.78772   -2.68515
       H   -14.21295   14.14175   -4.56182
       O   -14.37416   13.40642   -5.16625
      H1   -13.64313   13.32955   -5.84506
       H   -11.48447   16.86924    1.93145
       O   -11.44263   17.58620    2.59214
      H1   -10.88245   17.21366    3.25383
       H   -11.21844   16.03755   -4.83330
       O   -11.99814   16.52206   -5.08416
      H1   -11.65678   17.45987   -5.04714
       H   -16.09182   17.59236   -2.49948
       O   -16.26047   16.71048   -2.89967
      H1   -16.51071   16.97705   -3.79470
       H    -9.02332   12.68397    2.67923
       O    -8.66173   11.84219    2.43004
      H1    -8.13669   11.99331    1.63793
       H   -16.35340   19.55720   -1.56321
       O   -15.64202   19.36436   -2.17445
      H1   -14.87232   19.20784   -1.66840
       H   -14.08230   13.36033   -2.33669
       O   -13.85682   12.78008   -1.56877
      H1   -14.11143   11.90966   -1.88267
       H    -9.68236   16.06520    4.50479
       O    -9.91114   16.98079    4.68993
      H1   -10.79226   16.96904    5.08861
       H    -7.84246   16.06822   -3.70756
       O    -7.16060   15.72810   -3.07534
      H1    -7.09613   14.80166   -3.28319
       H    -4.50945   12.25158   -2.86363
       O    -4.75119   13.12341   -3.14985
      H1    -5.45265   13.09271   -3.74540
       H    -9.58086   14.34559   -2.06831
       O    -9.68574   14.61219   -1.15664
      H1   -10.44634   15.22727   -1.23349
       H   -11.25998   11.18209   -1.93041
       O   -11.62148   11.68593   -2.64868
      H1   -12.24253   12.18725   -2.11409
       H    -8.54668   17.03123   -5.47056
       O    -8.99193   16.92368   -4.59479
      H1    -8.71050   17.76790   -4.14471
       H    -5.42865   14.12269    2.19774
       O    -4.86352   14.77680    1.77300
      H1    -5.31783   15.60047    1.70292
       H   -14.82405   15.46388    0.61202
       O   -14.38303   15.29050    1.49634
      H1   -14.83403   14.47525    1.77380
       H    -9.93079   14.01558    4.31269
       O    -9.44092   14.41498    3.61898
      H1   -10.16400   14.79768    3.01608
       H    -5.83849   18.62884   -1.11427
       O    -6.36792   18.86765   -0.32287
      H1    -5.67953   19.46142    0.02453
       H   -13.29221   16.24023   -8.05611
       O   -12.48535   15.97924   -7.63050
      H1   -12.48799   16.32790   -6.72502
       H    -5.26398   13.39708   -1.23943
       O    -5.42565   13.23072   -0.27434
      H1    -5.05005   13.95143    0.17371
       H    -7.12881   16.72566    1.67282
       O    -6.20400   16.99933    1.84748
      H1    -5.95082   17.55306    1.04110
       H    -4.43298   17.26241   -1.62448
       O    -4.97555   17.46567   -2.38542
      H1    -5.70598   16.88350   -2.56161
       H   -11.93120   12.01842    1.16076
       O   -12.73500   12.53874    1.37925
      H1   -13.38717   12.16424    0.76921
       H    -8.53344   16.00046    0.04308
       O    -8.77895   16.52267    0.78340
      H1    -9.15133   17.37242    0.57300
       H    -7.53903   11.05275   -2.00696
       O    -7.40704   10.41423   -2.76091
      H1    -6.47601   10.28014   -2.77722
       H   -10.07850   10.29095   -0.17992
       O   -11.01068   10.52583   -0.04942
      H1   -11.49976    9.63971   -0.11784
       H   -10.03740   12.69943   -3.50931
       O    -9.66382   13.55694   -3.68685
      H1    -8.79436   13.47966   -4.09806
       H   -11.44568   13.91491    1.35287
       O   -11.15780   14.86597    1.57504
      H1   -10.29120   14.92722    1.11712

