108
frame 2 | Written by MDAnalysis XYZWriter (release 2.4.3)
       H    17.23890  -11.64064   -5.45374
       O    16.50252  -11.30132   -5.97360
      H1    16.41726  -10.31872   -5.93775
       H    18.22302  -17.32452   -7.10468
       O    18.41565  -16.67277   -6.42065
      H1    18.71013  -17.16480   -5.63965
       H    18.48055   -8.60274   -8.58533
       O    18.00159   -9.29008   -8.13776
      H1    17.46063   -8.84702   -7.46885
       H    17.50176  -14.03548  -14.58679
       O    16.54675  -13.90015  -14.51874
      H1    16.19077  -14.81498  -14.56704
       H    14.80025  -11.53190   -5.01390
       O    14.12999  -11.86559   -4.40235
      H1    13.87665  -11.05502   -3.93733
       H    15.96558  -16.28835   -5.18278
       O    15.77836  -16.99336   -4.54975
      H1    15.90554  -17.81675   -5.02910
       H    11.61575  -12.24611   -8.94724
       O    10.72976  -12.63652   -8.87013
      H1    10.82337  -13.60776   -8.87622
       H    13.47939  -11.71217  -10.85480
       O    13.28005  -11.25495  -10.05286
      H1    13.85567  -10.49851   -9.93665
       H    14.03418  -12.49867  -12.85862
       O    13.66241  -12.89790  -12.07291
      H1    14.37498  -13.31359  -11.59469
       H    12.21944  -14.61067   -6.22762
       O    12.34933  -15.41567   -6.66391
      H1    11.67463  -15.55340   -7.33878
       H    15.81819  -14.19480   -2.73917
       O    16.02628  -13.28654   -3.05334
      H1    15.21644  -12.91269   -3.45185
       H    12.47768   -8.66852   -5.53863
       O    13.28699   -8.13826   -5.49328
      H1    13.55378   -8.34474   -4.58382
       H    19.74732   -8.21687  -13.15071
       O    19.81121   -7.27930  -13.39235
      H1    19.07965   -6.88015  -13.01841
       H    12.24742   -9.38217   -8.58927
       O    12.07394   -8.43698   -8.64629
      H1    12.93043   -8.04506   -8.58895
       H    14.77711  -15.08088   -6.40983
       O    15.66748  -14.68864   -6.30668
      H1    15.54715  -13.79109   -6.00147
       H    13.70311   -7.26851   -7.08229
       O    14.29750   -7.04011   -7.84604
      H1    14.17900   -6.11290   -8.01153
       H    16.58652   -6.29635   -8.06040
       O    17.08831   -5.85142   -7.36298
      H1    16.76598   -6.23150   -6.53872
       H    19.14398  -13.04193   -9.67275
       O    19.19803  -13.23937  -10.63496
      H1    19.54904  -14.19230  -10.64606
       H    15.06230  -13.63484   -8.43077
       O    14.33101  -13.64199   -8.96374
      H1    14.17504  -12.78318   -9.35539
       H    12.11231  -14.39005   -4.27932
       O    11.99947  -13.47967   -4.65671
      H1    12.79580  -13.00115   -4.47164
       H    17.39031  -15.94961   -9.56616
       O    17.45535  -16.56833  -10.28673
      H1    18.34244  -16.52623  -10.61128
       H    18.33239   -8.85047   -3.91157
       O    18.26711   -8.01970   -4.42479
      H1    18.49661   -7.32905   -3.75515
       H    17.37705   -6.65702  -10.27078
       O    16.45568   -6.84362  -10.22220
      H1    16.43916   -7.81338  -10.12579
       H    18.86245  -13.22955   -4.89588
       O    18.31580  -12.63884   -4.39639
      H1    17.61770  -13.03614   -3.78226
       H    18.44737   -6.28319   -8.51933
       O    18.94056   -6.50720   -9.33541
      H1    18.91486   -5.70323   -9.93223
       H    20.26793  -10.67039  -13.31550
       O    19.64383   -9.90026  -13.13498
      H1    18.82694  -10.27516  -12.77914
       H    18.24766  -11.01560   -7.82301
       O    18.52289  -11.97100   -7.81255
      H1    17.80634  -12.34426   -7.37666
       H    16.63361   -9.74459   -9.45759
       O    16.01616   -9.62226  -10.15779
      H1    16.46443   -9.94417  -10.97021
       H    15.49393   -8.09268   -5.99466
       O    16.26359   -8.69295   -6.06111
      H1    16.89790   -8.29836   -5.42369
       H    17.18070  -13.03793  -11.08066
       O    16.37430  -13.10868  -11.65413
      H1    16.76499  -13.44485  -12.46580
       H    15.71641  -17.13519  -11.20837
       O    14.88061  -17.42411  -11.54797
      H1    14.87677  -18.35158  -11.29498
       H    16.25936  -16.05160   -3.05314
       O    16.11898  -15.91088   -2.09142
      H1    15.30787  -16.37837   -1.89110
       H    19.08168  -10.95499   -3.32314
       O    18.99695  -10.09419   -2.90720
      H1    18.62307  -10.29793   -1.95626
       H    16.82172  -11.45078  -12.33767
       O    16.97119  -10.53548  -12.51628
      H1    16.50881  -10.25701  -13.27360
       H    17.54319  -18.17606   -9.37868
       O    17.76913  -18.58095   -8.50720
      H1    17.02260  -19.20348   -8.28646
       H    13.56888  -15.03105   -9.56929
       O    13.20390  -15.84707   -9.94403
      H1    13.78632  -16.16522  -10.68372

