108
frame 2 | Written by MDAnalysis XYZWriter (release 2.4.3)
       H   -17.15489   -2.04756  -12.27287
       O   -16.64163   -1.25521  -12.64868
      H1   -16.37038   -1.56087  -13.53040
       H    -9.16062   -4.38907  -15.94462
       O    -9.87437   -4.95858  -16.26693
      H1   -10.26015   -4.62156  -17.07049
       H    -8.19869   -0.90029  -16.55574
       O    -8.90836   -1.52716  -16.82667
      H1    -9.75003   -1.12403  -16.65515
       H   -18.02476   -5.17229  -14.96831
       O   -18.89642   -5.30128  -15.38405
      H1   -19.37318   -5.83458  -14.78982
       H   -15.15243   -1.22294  -11.19703
       O   -14.35462   -1.55527  -10.72489
      H1   -14.33256   -2.45095  -11.17438
       H   -16.01633    0.56505  -17.76977
       O   -15.33962    0.47766  -17.13780
      H1   -15.00998    1.33613  -16.85691
       H   -16.39010   -4.20401  -11.16117
       O   -17.30253   -4.44347  -10.94623
      H1   -17.19816   -4.74199  -10.02485
       H   -11.88001   -3.89264  -18.88671
       O   -11.18173   -4.56684  -18.82653
      H1   -10.78045   -4.65001  -19.67758
       H   -13.95857  -10.09794  -14.24416
       O   -13.62950   -9.80114  -15.07952
      H1   -14.33465  -10.11505  -15.66416
       H   -14.97585   -6.90270  -16.67969
       O   -15.89577   -7.13082  -16.82388
      H1   -16.09664   -7.50025  -17.71690
       H   -13.51029   -9.59143  -17.97366
       O   -13.30277   -8.71644  -17.65039
      H1   -13.39071   -8.78389  -16.68600
       H   -12.72591   -1.26711  -11.43826
       O   -11.94054   -1.01516  -11.94019
      H1   -12.32468   -0.55140  -12.71586
       H   -12.03567   -5.17164  -14.00501
       O   -11.83919   -4.31410  -14.42931
      H1   -11.14855   -4.50023  -15.11874
       H   -17.32958   -8.77606  -19.53285
       O   -17.58381   -8.50078  -18.62459
      H1   -17.84357   -9.34834  -18.24673
       H   -18.85312   -4.87009  -20.00220
       O   -17.87550   -4.67839  -19.92402
      H1   -17.65550   -4.89938  -18.98476
       H   -11.57799   -8.18999  -10.63333
       O   -11.03531   -7.56357  -11.13311
      H1   -11.37223   -7.75397  -12.06794
       H   -11.53195   -8.39595  -18.09499
       O   -10.70613   -8.19480  -18.56169
      H1    -9.96719   -8.50657  -17.97204
       H   -15.55920   -5.24155  -15.07430
       O   -16.15748   -4.90635  -14.39785
      H1   -16.29706   -5.45467  -13.57370
       H   -10.32128   -2.36285  -12.57883
       O    -9.90946   -3.14297  -12.98375
      H1   -10.63233   -3.59225  -13.45249
       H   -13.39340   -2.89248  -17.75957
       O   -13.23352   -2.70536  -18.75001
      H1   -13.82133   -3.13284  -19.39123
       H   -19.13855   -2.16548  -15.16317
       O   -18.71867   -2.12603  -15.96158
      H1   -18.89851   -1.20231  -16.24067
       H    -7.26789   -6.19800  -17.52821
       O    -7.67834   -6.50900  -16.67063
      H1    -8.43962   -5.88089  -16.59244
       H   -17.17115    1.10517  -19.25541
       O   -17.39412    0.25851  -18.81617
      H1   -17.05270   -0.49850  -19.35067
       H   -13.96332   -4.52604  -16.39753
       O   -13.79457   -5.38556  -15.96753
      H1   -13.16130   -5.23740  -15.24591
       H   -12.90169   -7.54919  -14.15831
       O   -12.14759   -7.15992  -13.75278
      H1   -11.51675   -7.68434  -14.21212
       H   -15.74874   -0.70277  -15.84539
       O   -16.10895   -1.45187  -15.28878
      H1   -16.83334   -1.87528  -15.76114
       H   -17.14937   -4.27903  -16.74412
       O   -16.39372   -4.47886  -17.36048
      H1   -16.19670   -5.40935  -17.02883
       H   -18.02946   -6.74477  -12.77712
       O   -17.16860   -6.54070  -12.39060
      H1   -17.29954   -5.71377  -11.91438
       H   -14.27734   -1.99872  -15.66518
       O   -13.37395   -2.26474  -15.90908
      H1   -12.89502   -2.37419  -15.10308
       H   -11.46654   -0.59145  -17.50917
       O   -11.31014   -0.62033  -16.54422
      H1   -12.00051   -1.20662  -16.12388
       H   -13.68223   -7.25823  -18.94946
       O   -13.87290   -6.54987  -19.51529
      H1   -13.16286   -5.88155  -19.40807
       H   -17.71964   -8.83054  -15.30670
       O   -16.86718   -9.23264  -15.14043
      H1   -16.36089   -8.43498  -15.22217
       H   -11.71583    0.16956  -15.12394
       O   -12.06494    0.55565  -14.28686
      H1   -11.36223    1.18493  -13.95554
       H   -19.17247   -5.66837  -17.27443
       O   -19.25788   -6.39746  -17.83269
      H1   -18.42785   -6.87629  -17.93372
       H   -10.75591   -9.32766  -14.86310
       O   -10.11171   -8.61265  -15.08645
      H1    -9.52443   -8.64694  -14.30446
       H   -14.64178   -4.58317  -12.93981
       O   -14.67270   -4.32078  -12.01910
      H1   -13.91921   -4.74918  -11.57241

