108
frame 9 | Written by MDAnalysis XYZWriter (release 2.4.3)
       H    13.24132    5.24002   15.63886
       O    13.01682    4.55939   16.23282
      H1    12.66434    3.91324   15.64430
       H    11.41953    6.57763   17.99889
       O    11.48913    5.66949   18.31798
      H1    11.99949    5.14598   17.62534
       H     8.21353   -3.28183   17.55514
       O     8.78622   -3.55997   16.84189
      H1     9.58312   -2.99965   17.00143
       H     5.55101    2.38803   11.31386
       O     5.09419    1.65798   11.71348
      H1     5.35219    1.76002   12.65638
       H     9.40115    9.32911   19.29866
       O     9.25235    8.64562   18.62392
      H1     8.76374    7.89571   19.05626
       H     9.64252    4.89503   17.49788
       O     9.22696    4.06083   17.28540
      H1     9.55324    3.35801   17.91850
       H     8.07193    2.86519   16.46924
       O     7.58295    2.03709   16.44393
      H1     6.82905    2.18746   15.89579
       H     5.72552    6.08741   17.73506
       O     4.82129    6.49430   17.54487
      H1     4.63357    6.16428   16.67515
       H     7.65152   11.52255   18.23222
       O     7.45916   10.59478   18.32657
      H1     8.22563   10.06110   18.51426
       H    11.03340    3.16798   14.02487
       O    11.70290    2.66076   14.53243
      H1    12.42764    2.50274   13.97579
       H     3.57252    5.99982   18.63444
       O     2.79209    5.63766   19.12785
      H1     2.19708    6.43515   19.17867
       H    14.46695    1.98533   13.30378
       O    13.79313    2.58114   12.90429
      H1    13.45851    2.16170   12.10898
       H    12.72641   -1.87417   13.21584
       O    12.66903   -0.94079   13.25908
      H1    11.71028   -0.81671   13.07702
       H     9.30001    6.79243   15.89394
       O    10.25190    6.80246   15.68561
      H1    10.20905    6.23993   14.89281
       H     5.08288   -0.77439   17.32382
       O     5.16914   -1.05667   16.41251
      H1     5.19339   -2.00035   16.38614
       H     7.08141    7.35699   16.06537
       O     7.55607    6.60994   15.72786
      H1     6.94019    5.96270   15.34373
       H     9.49337   -0.08270   12.98565
       O     9.69236   -0.52891   12.15492
      H1     8.81260   -0.55119   11.67112
       H     6.14425    0.90442   14.15990
       O     5.71722    1.78319   14.30641
      H1     4.96442    1.61822   14.87771
       H     4.82052    2.28396   19.21520
       O     5.37128    2.52298   18.51781
      H1     6.00519    1.78078   18.31649
       H     6.12542    3.64629   13.84116
       O     6.78190    4.36659   13.88877
      H1     6.47298    5.12201   13.32928
       H    10.53963   -0.94698   16.67622
       O    11.31974   -1.47272   16.46739
      H1    11.19283   -1.43568   15.46223
       H    13.35456    1.30468   18.57322
       O    12.94109    1.49177   19.41703
      H1    13.02495    0.63410   19.77983
       H     2.90812    2.23086   16.63426
       O     3.79891    2.51441   16.39311
      H1     4.37093    2.43537   17.25088
       H     5.90686   -1.06216   13.20427
       O     6.69875   -0.58277   13.55235
      H1     7.27515   -1.21110   13.92789
       H    12.63656    5.60889   12.81346
       O    13.18360    5.26868   12.12112
      H1    13.46943    4.43848   12.49898
       H     7.68721    4.61135   18.17332
       O     6.84441    5.00556   18.53179
      H1     6.28321    4.22509   18.69819
       H     9.45102    5.13523   13.07829
       O     9.66563    4.86611   13.95904
      H1     8.84543    4.52038   14.30702
       H     9.95603    1.88280   19.47258
       O    10.25092    1.74936   18.56979
      H1    11.21000    1.58296   18.65916
       H     9.25620    0.50434   17.90024
       O     8.92901   -0.42579   17.72083
      H1     8.16765   -0.30457   17.19242
       H     4.11866   -0.34254   18.80405
       O     5.05070   -0.25664   19.01553
      H1     5.11619   -0.71765   19.87295
       H    14.96369    2.00511   15.88267
       O    15.28617    2.91711   16.12190
      H1    14.53254    3.47865   16.22760
       H    13.04781   -0.44684   17.05702
       O    13.87921    0.00090   17.13833
      H1    14.28524   -0.26581   16.26973
       H     5.64052    8.10959   17.50084
       O     6.16971    8.68217   16.92729
      H1     6.69950    9.26450   17.55484
       H    11.74885    7.09661   15.04620
       O    12.40381    6.76476   14.37154
      H1    12.75488    7.60389   14.06707
       H     9.26193    0.69975   15.19220
       O     9.99629    0.59988   14.59267
      H1    10.56204    1.37881   14.72965
       H     9.96636    8.81270   15.37872
       O     9.59814    9.60900   15.83953
      H1     9.56926    9.37694   16.76338

