108
frame 0 | Written by MDAnalysis XYZWriter (release 2.4.3)
       H    -5.01980   -3.70446  -10.88101
       O    -4.72808   -4.28919  -10.12987
      H1    -4.31058   -3.66930   -9.44958
       H    -5.43881   -2.34457   -5.83510
       O    -5.73363   -2.49432   -6.73802
      H1    -5.34600   -1.86226   -7.32451
       H    -1.81291   -2.26783   -3.57681
       O    -2.40498   -1.67360   -4.08350
      H1    -2.02448   -1.63918   -4.96872
       H     0.06737   -4.82089   -3.03082
       O    -0.12281   -4.18343   -3.75047
      H1     0.71895   -3.91172   -4.12308
       H    -4.44125    0.67843   -5.52766
       O    -5.30650    0.80257   -5.10155
      H1    -5.43003    1.73512   -4.82796
       H    -9.15269   -1.83774   -7.96269
       O    -8.82781   -2.76026   -8.21966
      H1    -7.97996   -2.69230   -8.71149
       H    -3.63377   -5.07606   -6.03795
       O    -4.32948   -5.24625   -6.67721
      H1    -4.54008   -6.18288   -6.77331
       H    -5.37488   -1.90796   -3.26397
       O    -4.87568   -2.57039   -3.75872
      H1    -3.90225   -2.35044   -3.73598
       H    -1.30927   -5.12400   -6.40474
       O    -1.88048   -4.83365   -5.64510
      H1    -1.14158   -4.67464   -5.01589
       H    -0.71859   -2.94236  -10.40197
       O    -0.94560   -3.83311  -10.62219
      H1    -0.15480   -4.06423  -11.04097
       H    -1.17677   -3.08993   -6.38251
       O    -0.82400   -2.21631   -6.41203
      H1    -0.96895   -1.83869   -7.25681
       H    -6.15849   -4.95790   -9.19229
       O    -6.91565   -5.44163   -8.72857
      H1    -7.00084   -5.20208   -7.82546
       H    -9.06085   -2.84291   -4.23210
       O    -8.39146   -2.52603   -4.85543
      H1    -8.40196   -3.21865   -5.56395
       H    -6.96539    1.81106   -7.21508
       O    -7.10188    0.85297   -7.03541
      H1    -6.65057    0.65828   -6.18810
       H    -1.47730   -3.57461  -12.31044
       O    -1.89280   -3.59736  -13.24370
      H1    -1.72153   -4.49804  -13.55485
       H    -4.16926   -7.60624  -10.79920
       O    -4.54713   -8.37137  -10.40180
      H1    -5.51260   -8.22264  -10.55661
       H     2.25276   -3.51211   -6.04419
       O     1.60291   -2.93924   -5.57765
      H1     0.81193   -2.89119   -6.11368
       H    -2.80731   -3.90213   -8.27500
       O    -3.38727   -3.12704   -8.23179
      H1    -4.00877   -3.29965   -7.54286
       H    -7.51961   -2.63964  -10.99816
       O    -7.34466   -1.95205  -10.38564
      H1    -7.64342   -1.12925  -10.77221
       H    -7.88193   -8.02076  -10.42423
       O    -7.45833   -7.79679   -9.57027
      H1    -7.54046   -6.85433   -9.41398
       H    -6.78797   -7.07460   -4.26520
       O    -5.83590   -6.99209   -4.47884
      H1    -5.72779   -7.24982   -5.42210
       H    -5.90971   -7.12022   -8.14139
       O    -5.42472   -7.54736   -7.44604
      H1    -5.30475   -8.41682   -7.81789
       H    -5.83096   -5.46462   -3.26200
       O    -6.03322   -4.72136   -2.66600
      H1    -5.59178   -3.97369   -3.11345
       H    -3.25665   -1.56862  -11.61403
       O    -2.90052   -0.67909  -11.54286
      H1    -2.89093   -0.60639  -10.59826
       H    -6.29405   -0.11937   -3.80979
       O    -6.98980   -0.42220   -3.29303
      H1    -7.44057   -1.13031   -3.74070
       H    -4.88174    1.26176   -9.07431
       O    -4.26766    1.94839   -8.99628
      H1    -4.23271    2.29555   -9.90467
       H    -2.36581   -0.45368   -7.81621
       O    -2.00073   -0.93848   -8.58408
      H1    -2.53350   -1.74928   -8.60409
       H    -2.97864   -5.56492  -11.21743
       O    -2.95044   -6.24263  -11.93575
      H1    -2.98563   -5.70708  -12.74965
       H    -1.46678   -9.07734   -6.23078
       O    -1.22295   -8.41588   -5.61771
      H1    -1.76372   -7.69261   -5.78314
       H    -0.12894   -0.83977   -9.55246
       O     0.42487   -1.56375   -9.72718
      H1     1.10034   -1.25965  -10.33526
       H    -6.20404   -0.07762   -8.45962
       O    -5.48091   -0.60148   -8.90620
      H1    -6.00034   -1.15228   -9.49679
       H    -6.40262   -2.78340  -13.09080
       O    -5.70496   -3.39134  -12.76893
      H1    -5.97703   -4.27670  -13.16677
       H     0.40414   -6.26982   -6.91487
       O    -0.27347   -5.81061   -7.56458
      H1    -0.83378   -6.51858   -7.93478
       H    -1.37658   -8.03024   -8.90390
       O    -1.98759   -7.72789   -8.27558
      H1    -2.83755   -7.65754   -8.73742
       H    -1.91327    0.70915   -6.30451
       O    -2.85200    0.59823   -6.58152
      H1    -3.21355    1.17231   -7.28141
       H    -6.55376   -5.44486   -5.73345
       O    -7.28863   -4.84323   -5.99848
      H1    -6.81364   -3.99884   -6.05812

