108
frame 5 | Written by MDAnalysis XYZWriter (release 2.4.3)
       H    16.95305  -10.76368   14.98788
       O    17.14637  -11.49676   15.64704
      H1    16.37020  -11.48915   16.16771
       H    10.66572   -3.22075   15.55820
       O    10.39790   -3.57077   16.38724
      H1    10.42092   -4.54081   16.36671
       H    15.84949   -1.58916   18.55807
       O    15.84265   -0.64288   18.69934
      H1    15.00853   -0.40271   19.16063
       H    12.63297  -13.56928   14.74687
       O    11.95800  -13.43660   15.42049
      H1    11.07348  -13.57770   15.01258
       H    12.22045  -11.54342   15.31850
       O    11.99396  -10.60436   15.06006
      H1    11.72287  -10.63842   14.13775
       H    14.56113  -13.11045   17.35327
       O    14.93941  -12.26220   17.11463
      H1    14.40707  -11.68774   17.73006
       H     9.36414   -8.25698   13.76999
       O     9.84150   -7.49753   13.33984
      H1    10.10033   -7.89346   12.50419
       H    12.72773   -7.55286   14.61459
       O    12.14469   -6.79641   14.83388
      H1    11.28909   -7.11228   14.41258
       H    11.56715  -10.27765   16.92333
       O    10.94536  -10.13167   17.68476
      H1    10.97514  -10.97704   18.17842
       H    12.20386   -8.60145   18.35993
       O    13.05847   -8.25721   18.62619
      H1    13.08060   -7.30032   18.70143
       H    10.66151  -12.44188   19.59692
       O    11.09678  -12.67925   18.77892
      H1    10.55546  -13.36493   18.42944
       H    14.63021   -8.82365   14.78284
       O    13.98562   -8.92333   14.05218
      H1    13.42658   -9.64010   14.37455
       H    12.93947   -5.28235   19.69240
       O    13.55898   -5.57857   19.05149
      H1    13.37441   -4.93107   18.34972
       H    19.80527  -12.79448   16.37080
       O    19.32467  -12.24450   16.97886
      H1    18.51264  -11.95701   16.55266
       H     6.48029  -10.90320   19.20919
       O     6.16908  -10.22571   18.54928
      H1     6.93028   -9.82805   18.14510
       H    11.09562  -11.15889   12.32593
       O    11.52383  -10.27771   12.50440
      H1    12.48951  -10.41415   12.33522
       H    16.63275   -4.01681   18.13177
       O    16.53547   -3.33473   18.75156
      H1    17.31402   -3.29370   19.34434
       H     9.27999   -6.07177   16.04991
       O    10.00395   -6.15505   16.77174
      H1    10.65139   -6.64116   16.17871
       H    16.61443   -8.68653   18.94661
       O    16.71049   -9.56510   18.49222
      H1    17.15737  -10.12068   19.15902
       H    16.05395   -8.72483   16.54818
       O    15.34557   -8.20752   16.18254
      H1    14.77209   -8.08523   17.00472
       H    12.80459  -15.70094   17.51013
       O    12.01661  -15.63796   16.97292
      H1    12.11710  -14.82055   16.43317
       H     7.01972   -2.94665   17.86187
       O     7.83350   -3.51214   18.05115
      H1     8.52616   -3.14952   17.47337
       H    15.27831   -7.23955   13.03275
       O    15.41110   -6.54849   12.36475
      H1    15.02447   -5.74720   12.75264
       H    14.93418  -14.61745   18.85998
       O    14.34411  -15.09147   18.19654
      H1    14.85816  -15.94187   18.19452
       H    11.84864   -2.78157   17.31659
       O    12.62559   -2.23769   17.75965
      H1    12.78964   -1.52990   17.10428
       H    14.40784   -9.88990   12.55838
       O    14.06234  -10.45836   11.86331
      H1    14.50475  -10.19622   11.03112
       H     9.42822   -5.98833   19.90314
       O    10.22107   -6.51883   19.72277
      H1    10.27924   -6.32589   18.80300
       H    13.56008   -3.59540   16.25860
       O    13.82839   -4.50296   16.29029
      H1    14.78131   -4.50808   16.45600
       H    17.68186   -8.81409   13.65236
       O    17.13986   -9.59965   13.38477
      H1    17.13593   -9.78326   12.40683
       H     8.30102   -7.94823   17.75990
       O     8.39690   -8.83949   17.40808
      H1     9.24275   -9.18455   17.56603
       H    16.25152   -6.53495   16.40680
       O    16.49668   -5.66156   16.65770
      H1    17.15209   -5.39499   15.96628
       H     8.34249   -9.20466   15.55908
       O     8.14968   -9.46473   14.63722
      H1     7.31563   -9.04516   14.41218
       H    18.55622   -7.08229   13.43132
       O    18.45144   -7.41970   14.34007
      H1    19.00367   -6.78413   14.83064
       H    14.02831   -4.34408   14.47932
       O    14.30339   -4.10468   13.56515
      H1    15.01651   -3.45569   13.69050
       H     6.71600   -5.92873   16.69115
       O     6.89540   -6.11979   17.63283
      H1     7.24599   -5.22553   17.86735
       H    19.12741   -7.96564   17.33846
       O    19.13471   -7.08494   17.76873
      H1    18.15078   -6.96574   17.97676

