108
frame 10 | Written by MDAnalysis XYZWriter (release 2.4.3)
       H    -7.92119  -17.62042  -11.69252
       O    -8.47221  -18.32815  -11.39285
      H1    -8.13706  -19.16512  -11.74049
       H    -4.23207  -14.94664  -11.17136
       O    -4.86636  -15.12408  -11.83882
      H1    -5.67516  -14.76558  -11.40289
       H     1.37385  -16.24478  -10.55689
       O     1.01562  -17.18972  -10.52664
      H1     0.71347  -17.25487  -11.41741
       H    -0.74874  -13.57671   -6.77058
       O    -1.53104  -14.10584   -6.87956
      H1    -2.09024  -14.05781   -6.09482
       H    -8.22553  -18.72153  -14.86925
       O    -8.13905  -17.78721  -14.84986
      H1    -7.47968  -17.64946  -14.07745
       H    -4.38089  -13.53614  -14.52236
       O    -4.27394  -13.14767  -13.61646
      H1    -4.38691  -13.82304  -12.94280
       H    -8.72829  -10.61937  -11.17018
       O    -8.29767  -10.50896  -12.05581
      H1    -7.41801  -10.15461  -11.73293
       H    -1.95856  -10.12669  -13.14038
       O    -1.37844   -9.49396  -13.60250
      H1    -1.56452   -9.62221  -14.52511
       H    -5.70111  -18.24765  -12.52285
       O    -6.04546  -17.41116  -12.86556
      H1    -5.54467  -16.74031  -12.40351
       H    -9.49413  -14.38164  -14.92478
       O    -9.56353  -13.60051  -14.29148
      H1    -8.88279  -13.77600  -13.63709
       H    -9.58839  -12.57896   -9.86592
       O    -8.98741  -11.88900   -9.48394
      H1    -9.27827  -11.81256   -8.55654
       H    -8.98626  -16.13202   -7.90165
       O    -8.29397  -15.45910   -7.99489
      H1    -8.55143  -15.01975   -7.23738
       H    -7.16159  -12.81353  -16.14352
       O    -6.84415  -12.14238  -15.49918
      H1    -7.07802  -12.41476  -14.62434
       H    -4.77226  -17.76776  -16.63281
       O    -4.80701  -16.86418  -16.17004
      H1    -5.38804  -17.12486  -15.44221
       H    -6.22440  -17.06612   -7.86919
       O    -6.60800  -17.93781   -7.94475
      H1    -7.55072  -17.84292   -8.11643
       H    -2.12521  -17.32318  -11.45318
       O    -2.64411  -17.79766  -10.72124
      H1    -2.22711  -17.52401   -9.89383
       H    -5.08054   -9.11506  -11.81404
       O    -5.77480   -9.50432  -11.26585
      H1    -5.54578   -9.10557  -10.39975
       H     0.11313  -14.10475  -15.00671
       O     0.43001  -14.92715  -15.37490
      H1     0.79138  -15.33186  -14.61771
       H    -6.08958  -12.72451  -13.27043
       O    -6.94863  -12.70516  -12.92342
      H1    -7.25667  -11.87872  -12.61299
       H    -4.27004  -15.18233  -16.12738
       O    -4.11079  -14.23846  -16.07090
      H1    -4.86016  -13.81460  -16.56499
       H    -4.00955  -15.31758   -8.28036
       O    -4.48496  -15.68573   -7.51023
      H1    -5.06084  -14.99531   -7.30627
       H    -1.58992  -13.99783  -10.35770
       O    -0.77864  -13.81241  -10.96491
      H1    -0.28439  -13.11978  -10.46722
       H    -0.65971  -16.46353  -13.02479
       O    -1.50150  -16.28335  -12.65716
      H1    -1.36718  -15.43947  -12.22660
       H    -4.29615  -10.63123  -15.32444
       O    -3.50563  -11.03482  -15.61994
      H1    -3.43684  -10.65896  -16.48774
       H    -3.42708  -16.42380   -6.27618
       O    -2.84841  -16.62850   -5.49437
      H1    -2.03813  -17.01016   -5.81923
       H    -2.35083  -14.28168   -8.51115
       O    -2.76158  -14.43313   -9.35181
      H1    -3.28221  -13.56363   -9.53457
       H    -0.86012  -15.29698  -16.95395
       O    -1.74690  -15.25850  -17.32771
      H1    -2.43439  -14.95570  -16.65370
       H    -0.15996  -17.56500   -8.92414
       O    -0.90577  -17.73576   -8.37477
      H1    -1.19407  -18.61783   -8.56777
       H    -3.28153  -11.94263  -12.88879
       O    -2.79073  -11.40685  -12.23860
      H1    -2.29699  -12.04275  -11.65119
       H    -8.06244  -14.71145  -11.09747
       O    -7.58923  -15.52671  -10.75342
      H1    -7.71537  -15.47298   -9.79023
       H     2.61851  -13.81013  -10.42603
       O     2.13000  -14.56050  -10.85834
      H1     1.20338  -14.35023  -10.89744
       H    -7.29434  -13.65227   -6.38377
       O    -6.36344  -13.44185   -6.69055
      H1    -6.46426  -12.80045   -7.34359
       H    -0.34668  -12.13260  -15.62528
       O    -0.77226  -12.35975  -14.77485
      H1    -1.70251  -12.29216  -15.03890
       H    -4.27125  -18.74086  -10.07565
       O    -5.10194  -19.19654   -9.85377
      H1    -5.62407  -18.53566   -9.31474
       H    -6.81662  -10.78649   -8.11164
       O    -6.53708  -11.54168   -8.64125
      H1    -7.34586  -11.93638   -9.03602
       H    -3.53779  -11.25672  -10.47681
       O    -3.90266  -11.74363   -9.74441
      H1    -4.77170  -11.36426   -9.46176

