108
frame 10 | Written by MDAnalysis XYZWriter (release 2.4.3)
       H    -5.04630    3.40612   -3.77056
       O    -5.60236    2.65252   -3.65798
      H1    -5.78379    2.46342   -4.59715
       H    -1.83038    2.17601    1.52820
       O    -1.76452    3.08492    1.15270
      H1    -1.88245    3.02852    0.22213
       H    -0.66236   -1.95800   -3.39084
       O    -0.69356   -1.97694   -2.41810
      H1    -0.01059   -1.47058   -1.94379
       H    -4.14102   -0.59465   -6.08739
       O    -3.82826    0.25076   -6.31653
      H1    -3.02203    0.38570   -5.78997
       H     1.72477    1.44648   -4.53104
       O     1.57378    2.41793   -4.58004
      H1     0.74888    2.54126   -5.02815
       H     1.99934    4.43961    1.31099
       O     2.44311    3.67344    1.62096
      H1     2.11730    3.00848    1.03400
       H    -3.93664   -2.00142   -1.99505
       O    -3.39581   -2.42535   -2.63609
      H1    -2.49255   -1.98119   -2.59738
       H    -2.87833    7.75547   -1.92341
       O    -3.78491    7.71658   -2.20726
      H1    -3.79738    6.90902   -2.73782
       H     1.51246    0.82921    0.02469
       O     2.01792    1.67485   -0.00022
      H1     1.66904    2.24625   -0.68820
       H    -6.77040    4.78818    1.83696
       O    -6.78144    4.71108    0.88460
      H1    -7.64709    4.31566    0.64061
       H    -5.18622    6.20399   -4.37604
       O    -5.22564    5.49317   -3.71035
      H1    -5.83615    5.81137   -2.99177
       H    -4.77747    6.56343    1.38981
       O    -4.19063    5.81662    1.68431
      H1    -3.64952    6.33534    2.29829
       H     1.03671   -3.15061   -2.63024
       O     1.94344   -3.40775   -2.82934
      H1     2.28965   -3.98389   -2.15015
       H    -5.70063    2.61785   -7.27290
       O    -5.54227    2.20867   -6.39544
      H1    -4.90940    1.50119   -6.42333
       H    -2.05535    6.45382    1.05088
       O    -1.41931    6.00751    0.50452
      H1    -1.50696    5.10316    0.89946
       H     3.02010   -0.42648   -3.36068
       O     2.43056   -0.04042   -4.03355
      H1     1.88384   -0.79426   -4.41276
       H    -5.27989    2.11893    2.19323
       O    -5.40841    1.92914    3.11207
      H1    -6.22763    1.33733    3.14124
       H     1.60915    4.52781   -1.81543
       O     1.32722    3.60190   -2.01246
      H1     1.38053    3.59597   -3.00884
       H    -0.80854   -2.72186   -5.75099
       O    -1.57056   -2.86910   -5.19244
      H1    -2.33261   -2.59902   -5.67454
       H    -1.94517    1.38720   -3.26377
       O    -2.46338    1.66594   -4.02768
      H1    -3.38255    1.54595   -3.92600
       H    -2.83443    1.19522   -1.42903
       O    -1.88170    1.39702   -1.36654
      H1    -1.89527    2.35186   -1.52996
       H    -5.36402   -0.28329   -1.19387
       O    -5.51235   -1.18684   -0.99229
      H1    -6.50023   -1.32736   -1.01991
       H    -8.64374    3.75751   -3.69291
       O    -8.02413    3.75866   -2.94575
      H1    -7.25641    3.17530   -3.17018
       H    -1.83943    4.86242   -1.16639
       O    -1.62927    4.10487   -1.76962
      H1    -0.65041    4.19247   -2.00431
       H    -7.58516   -0.94599   -4.51505
       O    -6.70151   -0.72746   -4.78213
      H1    -6.49855   -1.49414   -5.31048
       H    -1.09367   -4.76647   -1.07125
       O    -2.02189   -4.69867   -1.41806
      H1    -2.05319   -3.81126   -1.81444
       H    -2.10252   -2.68068    0.78567
       O    -1.21684   -2.42446    1.07506
      H1    -0.73589   -3.27785    1.19590
       H    -0.73428   -0.20226    1.74866
       O    -1.42639    0.29749    2.29336
      H1    -1.15854    0.44717    3.20923
       H    -5.43347    3.75034    0.43127
       O    -4.76414    3.07056    0.42320
      H1    -3.90426    3.45657    0.62976
       H    -3.98220   -2.27644    1.57385
       O    -4.01872   -2.50212    0.66693
      H1    -4.74026   -2.12561    0.18289
       H    -1.96332    4.96072   -3.40147
       O    -2.18609    5.47733   -4.20368
      H1    -1.65024    6.24740   -4.13264
       H    -0.45447   -1.12460    0.26525
       O     0.07856   -0.46021   -0.19574
      H1    -0.54025    0.11453   -0.58759
       H    -4.99159    1.54409   -2.22308
       O    -4.64248    1.20955   -1.43606
      H1    -4.73947    1.91904   -0.75713
       H    -1.38792    2.39981   -5.30625
       O    -1.10521    2.56536   -6.25201
      H1    -1.28650    3.46356   -6.39969
       H    -8.61305   -0.08788   -0.91174
       O    -9.27182    0.60964   -0.87665
      H1    -8.86005    1.43815   -0.66418
       H    -6.01954   -4.08561   -3.44179
       O    -5.32712   -3.90390   -4.09238
      H1    -4.60637   -3.47111   -3.57974

