108
frame 10 | Written by MDAnalysis XYZWriter (release 2.4.3)
       H    -3.32067    4.58016   12.60245
       O    -3.42130    3.64775   12.25649
      H1    -4.16241    3.47259   12.90937
       H    -7.44020    2.53013   12.12835
       O    -7.20071    1.64789   12.34709
      H1    -6.51764    1.77429   12.95848
       H   -11.36393    0.94797   12.22262
       O   -11.69646    0.12040   12.61207
      H1   -11.73998    0.31790   13.57810
       H   -11.32500    1.34035   18.49641
       O   -10.52510    1.49696   17.88783
      H1    -9.74689    1.40470   18.42633
       H   -12.82180   -2.99560   16.06228
       O   -11.94090   -2.95863   15.69610
      H1   -11.89486   -3.40467   14.86437
       H   -10.66431    3.98321   14.83881
       O   -10.25383    4.41025   14.04730
      H1   -10.51661    5.34769   13.87597
       H    -8.02022    6.02814   18.64388
       O    -8.42941    5.76009   19.48712
      H1    -8.99172    6.52261   19.73791
       H    -3.02770    2.02971   17.90165
       O    -2.85095    2.95796   18.02360
      H1    -2.95890    3.46980   17.22071
       H    -9.47077    1.68598    9.43984
       O    -9.42347    0.81997    9.83087
      H1    -9.42794    0.96259   10.79064
       H    -7.81766    0.23554   15.24189
       O    -7.50195    0.89252   16.01699
      H1    -8.11522    1.64982   15.95250
       H    -8.29829    5.11262   12.04320
       O    -8.37864    4.13743   11.83416
      H1    -9.25464    3.83643   12.04708
       H    -4.92055    5.87689   19.03972
       O    -4.86601    5.04558   19.56132
      H1    -4.65098    4.45209   18.82143
       H   -13.12201    1.61784   19.27431
       O   -13.01389    0.68598   19.01896
      H1   -13.70677    0.10788   19.47520
       H    -8.61212    3.58147   10.01863
       O    -8.52933    3.62797    9.03684
      H1    -7.61041    3.88739    8.81847
       H   -13.17937    5.15813   16.66315
       O   -12.78885    5.93261   17.07550
      H1   -11.92275    5.51392   17.30099
       H   -10.05626    8.49046   15.85494
       O   -10.09095    7.52392   16.13880
      H1   -10.63201    7.22980   15.38493
       H    -6.70096    7.48457   15.23731
       O    -6.15866    7.86780   14.55203
      H1    -5.32391    8.12296   15.05141
       H    -8.71474   -1.36951   18.31917
       O    -8.95942   -1.28973   17.39270
      H1    -8.34403   -0.54619   17.19232
       H   -11.64757    2.61065   11.19858
       O   -10.83436    2.62745   11.76773
      H1   -11.15083    3.14564   12.52800
       H    -5.12564   -2.82746   13.31497
       O    -5.78862   -3.36090   13.79177
      H1    -6.48852   -2.79193   14.06261
       H    -6.65064    6.75342   11.76504
       O    -7.32142    6.52330   12.41956
      H1    -6.83316    6.71926   13.23875
       H   -13.50403    4.20085   19.46175
       O   -12.67317    3.68604   19.69667
      H1   -11.93132    4.06151   19.17627
       H    -4.12752   -0.41554   17.60013
       O    -3.17950   -0.19214   17.36311
      H1    -2.81587   -1.03963   17.07681
       H   -11.80263   -1.07801   19.13877
       O   -11.40359   -1.95120   18.91212
      H1   -11.40482   -2.07545   17.95258
       H    -8.36626    4.10926   14.95889
       O    -7.84088    3.82616   15.73251
      H1    -7.66102    4.74063   16.11384
       H    -9.59532   -3.10774   17.07819
       O    -9.87016   -4.06314   17.15421
      H1   -10.55366   -4.11482   16.49809
       H    -8.72305   -1.46140   13.71235
       O    -8.17688   -1.62191   14.55045
      H1    -8.76961   -2.18073   14.99513
       H    -5.54290   -3.18555   15.81972
       O    -5.77075   -3.16516   16.74248
      H1    -5.81524   -2.25659   17.03987
       H    -8.36145   -2.31979   11.60205
       O    -9.28863   -2.13026   11.93700
      H1    -9.81050   -1.92165   11.13147
       H   -10.12629    3.47662   18.21346
       O   -10.35546    4.43595   18.14670
      H1    -9.73071    4.82163   18.74255
       H    -2.44895    1.81783   14.94362
       O    -3.03094    0.98483   14.78377
      H1    -3.11138    0.57969   15.69778
       H    -6.60229   -0.08733    9.49959
       O    -5.92730    0.09788   10.11334
      H1    -6.49986    0.38007   10.84346
       H    -5.66367   -0.02260   18.84501
       O    -5.84621   -0.51729   18.02378
      H1    -6.20735    0.13024   17.42761
       H    -4.50954    1.82378   14.61925
       O    -5.21701    2.37340   14.19063
      H1    -5.64703    2.75276   14.93699
       H    -7.42146    7.40748   17.42075
       O    -7.67566    6.70226   16.78407
      H1    -8.57186    6.93000   16.60144
       H   -11.43097    0.40896   16.21513
       O   -12.08857    0.19006   15.53506
      H1   -12.20025   -0.78601   15.70784

