108
frame 8 | Written by MDAnalysis XYZWriter (release 2.4.3)
       H     9.47050   16.99727    2.33080
       O     9.40074   17.62479    3.06303
      H1     9.46250   17.06408    3.81812
       H    -2.14153   13.02905    3.33018
       O    -2.15110   13.97160    3.12011
      H1    -3.04289   14.15477    2.76901
       H     3.09178   18.30988   -3.51510
       O     2.85513   18.31505   -2.58417
      H1     1.96710   18.64599   -2.53073
       H     3.27662   19.37065   -0.01461
       O     2.88335   19.04767    0.80622
      H1     2.22684   18.31678    0.54764
       H     6.93028   17.17169    8.33099
       O     7.01491   16.22593    8.57915
      H1     6.59679   15.76045    7.85204
       H    -2.69366   19.83321    3.31586
       O    -2.52707   18.96641    2.96414
      H1    -3.33769   18.72914    2.49067
       H     3.47624   18.17245    4.40443
       O     2.89980   18.44041    5.08751
      H1     3.25322   19.28262    5.37457
       H     4.78930   19.02251   10.15960
       O     5.22992   19.54260    9.46954
      H1     5.64024   20.21360    9.99159
       H     4.45045   17.64509   12.05776
       O     3.80082   18.35496   11.81851
      H1     3.32985   17.88200   11.13498
       H     2.09250   16.11971    6.89505
       O     2.66945   16.83930    7.22889
      H1     2.59788   17.66547    6.66174
       H     3.38645   16.73072   -2.14476
       O     3.68264   15.86514   -2.02954
      H1     4.08071   15.81186   -1.15575
       H    -0.78793   17.87005    4.28634
       O    -0.09950   17.35587    4.71201
      H1     0.64539   17.94218    4.60447
       H     4.57707   14.55034    2.96152
       O     4.86449   15.09427    2.17112
      H1     4.55564   16.04063    2.24286
       H     3.74602   12.07974    6.95433
       O     2.84761   12.16990    7.36128
      H1     3.00308   11.93558    8.28378
       H     1.14437   14.30228    6.13476
       O     1.31567   14.59471    7.09463
      H1     1.95867   13.86211    7.27843
       H    -0.45831   14.89624    2.66761
       O     0.36559   15.39015    2.79931
      H1     0.18182   16.18462    3.38955
       H     3.34720   14.14170    1.28717
       O     2.86645   13.44515    0.82458
      H1     2.53410   13.98746    0.06264
       H     6.69563   19.25245    8.58678
       O     7.43823   18.83864    8.11892
      H1     7.34685   19.09239    7.18938
       H     0.88640   16.29970    1.12750
       O     1.02610   16.80781    0.29169
      H1     0.22153   16.61718   -0.21061
       H    -1.88168   14.31518    6.98018
       O    -1.56603   14.28878    7.88278
      H1    -0.65439   14.59638    7.93673
       H     8.71587   15.47452    6.32500
       O     8.90570   15.55028    5.41147
      H1     8.10329   15.39057    4.93154
       H     6.05969   16.07712    3.52122
       O     6.44065   16.27704    4.37441
      H1     5.87967   15.90750    5.10053
       H     2.20302   15.73658   10.34599
       O     2.90818   16.35152   10.12252
      H1     2.78883   16.50234    9.20475
       H    -0.60260   18.74261    0.71777
       O    -1.46608   18.85880    0.29430
      H1    -2.00457   19.23620    1.04125
       H     1.87496   12.09296    3.55761
       O     2.33162   11.50989    2.95633
      H1     2.33207   11.94758    2.10277
       H     5.47949   12.68087    5.72258
       O     5.43914   12.73069    6.69010
      H1     6.20428   12.09320    6.88204
       H     6.14271   19.58891    2.08565
       O     6.53225   18.68276    2.08271
      H1     7.37116   18.75968    2.62344
       H     6.95340   18.62882   -0.30392
       O     6.86898   18.97976   -1.21333
      H1     7.24397   19.87543   -1.20364
       H     5.24279   18.10644    2.83944
       O     4.33653   17.67814    2.74296
      H1     4.01360   18.17904    1.99299
       H     6.10645   15.93699    9.90728
       O     5.44598   15.62817   10.59329
      H1     4.59736   15.84621   10.31743
       H     5.22546   14.42998    6.62812
       O     5.33290   15.36126    6.77509
      H1     4.44678   15.75994    6.89134
       H     0.42390   12.42094    4.45030
       O     1.01542   13.21136    4.53148
      H1     0.63961   13.87301    3.91792
       H    -0.89864   17.46771    6.59937
       O    -1.49475   17.72916    7.37333
      H1    -2.02288   16.93519    7.59173
       H     5.34254   14.66031    0.67801
       O     5.46870   14.45916   -0.25790
      H1     6.39392   14.16002   -0.23155
       H     7.45331   18.12245    5.02464
       O     7.28440   19.03101    5.32934
      H1     7.97424   19.61791    5.00716
       H     5.29639   12.74945    3.43913
       O     4.58262   13.07719    4.10731
      H1     3.82939   12.46347    3.94574

