108
frame 4 | Written by MDAnalysis XYZWriter (release 2.4.3)
       H     6.43184   -8.19608  -12.51589
       O     6.10103   -9.01277  -12.24093
      H1     6.90208   -9.47939  -11.91278
       H     1.74126  -12.07222   -6.45469
       O     1.53465  -12.63452   -7.19445
      H1     0.73929  -13.02863   -6.85917
       H     6.33011  -10.42300   -9.17424
       O     6.72220   -9.56028   -8.98931
      H1     6.23971   -8.81322   -9.34086
       H     0.86440  -10.58904  -10.95521
       O     1.07585   -9.97887  -11.68622
      H1     0.31593   -9.93472  -12.26041
       H     3.58269   -4.95043  -11.30791
       O     3.10382   -4.68182  -12.14645
      H1     2.17792   -5.08280  -12.08653
       H     6.77957  -13.51183  -12.15187
       O     5.98438  -13.15903  -12.59432
      H1     6.17927  -12.22555  -12.49371
       H    -0.15650   -6.66918  -10.81488
       O    -0.94958   -6.44404  -10.26762
      H1    -1.79686   -6.39940  -10.76052
       H     3.36371  -10.39961   -8.92133
       O     3.43746   -9.55050   -8.48532
      H1     4.24089   -9.13359   -8.85338
       H     1.73433   -7.94504  -11.62169
       O     1.69051   -7.16348  -11.01649
      H1     2.22117   -7.44877  -10.24394
       H    -0.99041  -14.30648   -5.81079
       O    -0.57756  -13.37825   -5.65175
      H1    -1.27066  -12.84115   -6.10969
       H    -3.67327   -9.45381  -12.45051
       O    -3.94194   -9.61034  -11.52844
      H1    -3.34068   -9.16043  -10.93746
       H     5.72525  -12.67632   -9.05894
       O     6.58044  -12.66306   -8.57635
      H1     6.43545  -11.97267   -7.84410
       H     1.05203   -9.94590  -16.22889
       O     0.57638   -9.10389  -16.13204
      H1     1.26770   -8.56563  -15.79733
       H     0.48562  -15.07899  -13.83383
       O     0.85135  -15.60033  -14.56415
      H1     0.28561  -16.39711  -14.55203
       H     2.77266  -12.36354   -8.59077
       O     3.59708  -12.16712   -9.14785
      H1     3.32717  -12.60004  -10.01163
       H    -4.32118  -14.23322  -10.05342
       O    -3.46285  -13.81666   -9.78445
      H1    -3.69068  -13.18608   -9.04120
       H     1.84548  -12.30361  -15.69600
       O     1.43271  -11.76120  -16.32290
      H1     0.61290  -12.26255  -16.46535
       H     2.68270   -8.89835   -7.20157
       O     2.17991   -8.22342   -6.69185
      H1     1.79573   -8.81305   -5.99275
       H     0.34206  -13.98948  -11.44211
       O     0.05374  -14.24514  -12.35471
      H1    -0.34884  -13.51302  -12.83957
       H    -1.72814   -7.23876  -14.16802
       O    -1.11986   -7.01465  -13.44204
      H1    -0.63338   -7.85764  -13.37089
       H    -1.04185  -11.76158  -10.39303
       O    -0.17399  -11.73780   -9.91774
      H1     0.24994  -12.61167   -9.80985
       H    -3.78520   -8.57673  -14.33359
       O    -3.31750   -9.34574  -14.05252
      H1    -2.39671   -9.05116  -14.00504
       H    -2.75983  -11.54755   -7.56062
       O    -3.44986  -12.29352   -7.63803
      H1    -4.27023  -11.89998   -7.29929
       H    -0.59902  -11.16438   -8.08443
       O    -1.30875  -10.53926   -7.73034
      H1    -1.08652  -10.17049   -6.92055
       H     5.07486  -10.02132  -13.42215
       O     4.55924  -10.61440  -13.98762
      H1     3.88712  -10.96650  -13.35148
       H    -3.04448  -11.23580  -11.20802
       O    -2.55057  -12.03209  -11.48159
      H1    -2.84970  -12.77276  -10.91593
       H     3.73522   -7.76589  -14.67790
       O     3.34682   -8.56761  -15.11449
      H1     3.75299   -9.28185  -14.63015
       H     2.23540  -14.52651  -10.50694
       O     1.38897  -14.11534  -10.22304
      H1     1.10659  -14.58830   -9.38060
       H     3.75477  -13.91271   -8.04013
       O     3.97298  -14.82932   -8.05847
      H1     4.90105  -14.87435   -7.74498
       H     1.13608   -6.93806   -7.66762
       O     0.64618   -6.24124   -7.98004
      H1     0.22752   -6.62528   -8.73984
       H    -1.70158  -12.93020  -14.73043
       O    -1.21655  -12.53230  -14.00764
      H1    -1.91551  -12.33286  -13.39025
       H    -1.91177   -7.96528   -9.29657
       O    -2.52567   -8.73573   -9.30028
      H1    -2.05025   -9.50140   -8.93057
       H     0.04491   -6.14395  -14.47540
       O     0.80446   -5.56017  -14.60027
      H1     1.23687   -5.66253  -15.42624
       H     5.15022   -6.66425  -10.12767
       O     5.02572   -7.63466  -10.03408
      H1     5.37113   -7.97727  -10.91909
       H    -0.73057  -10.72139  -14.05775
       O    -0.47502   -9.81686  -13.86948
      H1     0.06327   -9.51292  -14.60221
       H     2.06457  -13.05577  -12.24717
       O     2.76399  -12.45486  -11.92389
      H1     2.45392  -11.50569  -12.02714

