108
frame 6 | Written by MDAnalysis XYZWriter (release 2.4.3)
       H    -9.88666  -16.62888   -8.58101
       O    -9.38710  -16.78198   -9.40998
      H1    -8.96055  -17.64540   -9.39810
       H   -11.03955  -16.45863   -4.01212
       O   -10.47248  -16.45725   -4.80729
      H1    -9.85594  -17.12993   -4.54695
       H    -3.67060  -17.94172   -4.26574
       O    -2.78497  -18.18273   -4.55012
      H1    -2.37996  -17.52332   -5.03572
       H   -10.49901  -18.60849    5.78569
       O    -9.67385  -18.51301    5.23665
      H1    -9.38997  -19.42081    5.14814
       H    -9.87590  -17.38148    2.12664
       O    -9.24094  -18.04754    2.45615
      H1    -9.59719  -18.27637    3.28722
       H   -12.54074  -19.36096   -8.58749
       O   -12.71486  -18.61439   -7.94568
      H1   -12.97872  -17.85486   -8.50059
       H   -10.61846  -14.76529   -7.76549
       O   -10.59458  -13.77671   -7.63289
      H1    -9.92367  -13.67127   -6.96188
       H    -8.00042  -18.44655   -5.65651
       O    -7.55012  -17.62041   -5.42201
      H1    -7.26621  -17.31208   -6.27092
       H    -9.97925  -14.38047    4.21352
       O    -9.85256  -13.53768    3.75368
      H1    -9.29863  -13.64039    3.00557
       H    -9.89574  -13.35558   -1.07391
       O    -9.20858  -12.75992   -1.20423
      H1    -9.67428  -11.89810   -1.45663
       H    -5.62466  -16.32013   -7.50755
       O    -6.44339  -16.72245   -7.89831
      H1    -6.86680  -15.93649   -8.31165
       H   -16.05939  -19.02516   -0.10786
       O   -16.05436  -18.06647    0.24225
      H1   -16.03713  -18.09060    1.25504
       H   -10.16107  -18.74140   -1.82051
       O    -9.73844  -18.55944   -2.69611
      H1   -10.19804  -19.04643   -3.43228
       H   -16.30075  -17.49562    4.06124
       O   -15.63780  -17.69134    3.38320
      H1   -15.06656  -18.32913    3.73712
       H   -14.98993  -13.94967    1.81514
       O   -14.42693  -13.21922    1.38155
      H1   -13.64089  -13.12479    1.92124
       H   -12.15204  -16.09846    1.85706
       O   -11.48819  -16.57198    1.36344
      H1   -11.19215  -15.98464    0.67057
       H    -9.87287  -16.64852    5.04099
       O    -9.61602  -15.75290    5.26763
      H1    -9.70396  -15.59834    6.20643
       H    -7.56073  -17.57158    2.89169
       O    -6.71625  -17.16097    2.99348
      H1    -6.66922  -16.48703    2.26639
       H    -9.55161  -14.54518   -4.99106
       O    -9.62258  -13.57300   -5.00366
      H1   -10.45587  -13.42157   -4.61638
       H    -5.26808  -15.14973   -0.37295
       O    -4.78834  -14.80764   -1.15375
      H1    -3.85895  -15.10680   -1.13783
       H    -6.16148  -17.36883   -4.10561
       O    -5.27811  -17.28841   -3.64807
      H1    -4.82337  -16.50321   -3.95551
       H    -3.89562  -14.02382   -4.42841
       O    -4.16724  -14.88519   -4.09047
      H1    -4.30202  -14.86947   -3.12636
       H    -3.88335  -18.38210    2.99133
       O    -4.50513  -18.88672    2.39390
      H1    -5.37125  -18.56135    2.70206
       H    -7.69575  -12.65010   -2.42831
       O    -6.81095  -12.31024   -2.63542
      H1    -6.23305  -13.04103   -2.41308
       H    -6.95136  -16.09451    0.35904
       O    -6.67609  -15.42010    0.94438
      H1    -7.36370  -14.73116    0.94759
       H    -7.90980  -12.44000    1.64164
       O    -8.42162  -13.21378    1.41247
      H1    -8.74769  -12.90048    0.58495
       H   -13.81342  -13.47383   -6.54065
       O   -13.29292  -14.23137   -6.19003
      H1   -12.32894  -14.00386   -6.42991
       H   -11.94404  -13.74121   -1.81829
       O   -11.69901  -14.23055   -1.03305
      H1   -12.44422  -14.14414   -0.49150
       H   -11.45859  -17.52309   -7.71493
       O   -11.06547  -16.64305   -7.41319
      H1   -10.83934  -16.77718   -6.46560
       H   -13.70252  -19.38125   -5.09793
       O   -13.40454  -18.51353   -5.36617
      H1   -13.37749  -18.43414   -6.32481
       H    -8.01702  -17.70669   -1.77201
       O    -7.29414  -17.11489   -1.51676
      H1    -7.15970  -16.51073   -2.21405
       H   -12.57510  -17.41456   -2.20539
       O   -12.61613  -16.82837   -2.99148
      H1   -12.98032  -17.37002   -3.72316
       H   -14.08900  -15.80480    3.05664
       O   -13.21387  -15.39021    3.26902
      H1   -13.42055  -14.95013    4.09400
       H   -15.54386  -13.99540   -4.72335
       O   -16.01071  -14.78628   -5.00350
      H1   -15.40816  -15.54120   -4.90413
       H   -12.90200  -14.08425   -4.31924
       O   -12.14901  -13.97857   -3.68894
      H1   -12.26391  -14.77794   -3.16809
       H   -12.88398  -17.64716    0.31454
       O   -13.14304  -18.23749   -0.39530
      H1   -14.08874  -18.23415   -0.44992

