108
frame 11 | Written by MDAnalysis XYZWriter (release 2.4.3)
       H   -18.82859    0.57956   -3.59820
       O   -19.05928    1.32947   -4.13654
      H1   -18.24360    1.47225   -4.62790
       H   -12.89188    3.43911   -4.45466
       O   -12.27952    3.17160   -5.20725
      H1   -11.80688    2.42965   -4.82738
       H   -17.62974    4.39406   -9.22797
       O   -17.71357    5.16533   -9.78096
      H1   -18.42299    4.94355  -10.42101
       H   -15.49970    5.96352   -2.74167
       O   -14.68179    5.96734   -2.19561
      H1   -14.30883    6.83318   -2.46110
       H   -17.54633    2.04758   -9.83811
       O   -16.72818    2.53949   -9.82305
      H1   -16.91033    3.37993  -10.26393
       H   -14.73455    8.25148   -3.40747
       O   -13.83670    8.38362   -3.08621
      H1   -13.85045    8.95022   -2.27927
       H   -17.18408    0.43642    2.17380
       O   -16.71029    1.20428    2.46659
      H1   -17.37679    1.90430    2.43747
       H   -13.90410    1.13048   -7.93779
       O   -13.80296    0.22888   -8.17292
      H1   -12.98292    0.21651   -8.66266
       H   -16.21037    2.09430   -2.55636
       O   -15.42043    1.83677   -3.07038
      H1   -15.71166    1.99690   -3.99063
       H   -18.03716    9.77542   -4.89976
       O   -18.94526    9.72436   -4.48639
      H1   -18.71793    9.19422   -3.68024
       H   -18.97433   -1.74023   -4.89651
       O   -19.22161   -2.21363   -5.74216
      H1   -19.40644   -1.50004   -6.40868
       H   -16.31056    9.47434   -4.19331
       O   -16.29708    8.54027   -4.43574
      H1   -16.58126    8.46625   -5.39230
       H   -14.05165    3.05633   -6.38535
       O   -14.42105    2.76296   -7.19937
      H1   -14.60096    3.56762   -7.70981
       H   -13.50737   -1.09526   -3.78423
       O   -14.46159   -0.92987   -3.65580
      H1   -14.66868   -0.03568   -3.42247
       H   -17.96203    7.80092   -7.50512
       O   -17.32726    8.31798   -6.91673
      H1   -16.60979    8.61391   -7.51393
       H   -14.97704    3.14131    0.15831
       O   -14.78552    4.06178    0.40500
      H1   -14.61166    4.63082   -0.34830
       H   -12.95959    3.42911    3.39051
       O   -13.79426    3.78496    3.08430
      H1   -14.02984    3.16430    2.36340
       H   -17.06659    3.09409   -5.74968
       O   -16.76281    2.22997   -5.54683
      H1   -16.17046    2.11219   -6.25402
       H   -10.66527    1.37049   -2.42962
       O   -11.48659    1.53456   -2.98532
      H1   -11.88151    2.28229   -2.56559
       H   -17.55651    6.20968   -3.08770
       O   -17.06058    5.43223   -3.44514
      H1   -16.90871    5.52255   -4.37773
       H   -14.34576   -0.77728   -6.85763
       O   -14.78008   -1.57216   -6.42432
      H1   -14.71864   -1.48014   -5.47453
       H   -19.83494    5.67615   -0.02978
       O   -19.32581    6.49746   -0.14197
      H1   -19.30676    6.81659   -1.05292
       H   -11.67516    3.60374    0.39524
       O   -11.66485    3.34687   -0.55815
      H1   -12.55947    3.57623   -0.91726
       H   -18.82095   -1.90474   -0.03382
       O   -19.63929   -1.35753    0.10588
      H1   -19.64077   -0.91467    0.94732
       H   -19.26448    2.99643    3.20009
       O   -18.56359    3.36004    2.61176
      H1   -18.05716    4.00669    3.13700
       H   -17.02665   -3.48283   -0.58680
       O   -17.19068   -2.57739   -0.44767
      H1   -16.43637   -2.21210   -0.91900
       H   -12.35593    0.06909   -0.63072
       O   -12.55579    0.67632    0.06325
      H1   -11.77404    1.22319   -0.02521
       H   -19.61503   -0.89014   -2.27397
       O   -18.84250   -1.15121   -2.73529
      H1   -18.14768   -1.48040   -2.14979
       H   -14.21059    3.16398   -2.37781
       O   -13.35767    3.61636   -2.51858
      H1   -13.64203    4.55213   -2.52614
       H   -14.83683   -1.19248   -1.74421
       O   -15.15465   -1.09893   -0.82229
      H1   -15.37174   -0.19536   -0.67311
       H   -17.55205    5.33818   -7.05847
       O   -17.62200    4.70951   -6.36105
      H1   -18.36110    4.09430   -6.56261
       H   -14.27768    1.28776    0.19127
       O   -15.24997    1.44890    0.23535
      H1   -15.52337    1.33567    1.18068
       H   -18.98090    3.69108   -0.72863
       O   -19.59129    3.67807    0.08243
      H1   -19.03303    3.36538    0.83468
       H   -17.60980    3.93338   -2.82781
       O   -17.98791    3.23513   -2.29113
      H1   -18.60334    2.82101   -2.93458
       H   -18.55066    9.42448   -0.33665
       O   -18.03895    9.04435   -1.05488
      H1   -17.74935    8.20850   -0.69064
       H   -16.80472    5.80990    1.45818
       O   -17.37870    6.44045    1.87491
      H1   -18.15232    6.60428    1.28459

