111
frame 11 | Written by MDAnalysis XYZWriter (release 2.4.3)
       H     8.88386   -9.12350  -14.06750
       O     8.11310   -9.28327  -13.46528
      H1     8.02627  -10.27517  -13.47308
       H    16.93095  -12.15066  -17.61661
       O    17.63446  -11.88245  -17.04198
      H1    17.92582  -11.00749  -17.39202
       H    13.64223   -7.07768  -18.71352
       O    13.58659   -7.56546  -17.87733
      H1    14.07225   -8.37962  -18.15162
       H    10.31562   -9.14108  -10.61118
       O    11.09579   -8.86362  -10.16837
      H1    11.63625   -8.65157  -10.90218
       H    14.36462  -13.80523  -16.87109
       O    13.88304  -14.48639  -16.37042
      H1    14.05340  -15.28256  -16.81795
       H    15.81686   -5.73730  -13.46955
       O    15.16339   -5.96242  -14.14446
      H1    14.32309   -6.07472  -13.75018
       H    19.11931  -12.89732  -16.25487
       O    19.89688  -13.22549  -15.83292
      H1    20.08723  -12.67517  -15.04403
       H     9.22254   -8.68768  -16.13172
       O     9.85044   -8.49172  -15.41746
      H1     9.79548   -7.53768  -15.16883
       H    14.03985  -10.98074   -8.50180
       O    14.95186  -10.78436   -8.11499
      H1    15.45053  -11.54653   -8.51431
       H    12.17289  -10.50863   -9.87426
       O    12.67297  -11.26279   -9.50255
      H1    12.76221  -11.91322  -10.18636
       H    11.66595   -8.60551  -15.69019
       O    12.55130   -8.29605  -15.50194
      H1    12.88638   -8.05632  -16.33092
       H    13.02164  -11.51013  -19.11405
       O    13.36901  -10.98189  -18.41164
      H1    12.73726  -10.27451  -18.23231
       H    10.37938  -12.00693  -16.24571
       O    10.20663  -12.22131  -17.16199
      H1    10.81698  -12.96220  -17.29628
       H    14.20245  -18.31200  -12.39536
       O    14.24423  -17.38713  -12.73322
      H1    13.35976  -17.08028  -12.85850
       H    20.08759   -8.25189  -14.43401
       O    19.21475   -8.67294  -14.38259
      H1    19.03353   -8.63611  -13.42349
       H    14.48911  -15.49443   -9.79540
       O    13.51990  -15.33335   -9.72272
      H1    13.39813  -14.61718   -9.07283
       H    14.66884  -10.17792  -19.23358
       O    15.31814   -9.79274  -19.78578
      H1    16.14480  -10.31300  -19.64565
       H    13.52888  -14.18729  -11.04702
       O    13.56499  -13.28831  -11.36947
      H1    14.19004  -13.34724  -12.09105
       H    17.04726  -14.44553  -17.67934
       O    17.56828  -15.24699  -17.74859
      H1    18.12641  -15.26809  -16.94346
       H     9.81747  -13.03333  -11.57496
       O    10.14196  -12.19650  -11.96197
      H1    10.82594  -12.41436  -12.60914
       H    15.14634  -10.38505  -12.04215
       O    14.98552   -9.92311  -11.24823
      H1    15.26540  -10.47800  -10.53449
       H    10.37545  -12.94211  -14.40097
       O    11.24958  -13.30950  -14.30313
      H1    11.82603  -12.53972  -14.35504
       H    15.41604  -16.19049  -11.53250
       O    15.90927  -15.81168  -10.76040
      H1    16.27545  -16.53604  -10.24383
       H    15.91536   -8.33307  -11.07215
       O    16.23140   -7.44484  -10.82711
      H1    16.25965   -7.53033   -9.83358
       H    12.47459   -6.33205  -13.20817
       O    12.28622   -5.96807  -14.10286
      H1    12.52344   -6.77503  -14.55546
       H    15.22276  -13.85792  -18.69991
       O    15.51157  -13.14362  -18.08664
      H1    14.74891  -12.53013  -17.92130
       H    18.72532   -9.53707  -11.09952
       O    18.72460   -8.71538  -11.62086
      H1    17.92388   -8.29567  -11.44236
       H    13.72850   -8.53271  -11.77661
       O    13.25131   -7.64815  -11.90948
      H1    13.72588   -7.07628  -11.21611
       H    14.01689  -11.30883  -14.14323
       O    13.08286  -11.15080  -14.23352
      H1    12.92514  -10.35007  -14.74326
       H    17.36576   -9.36521  -15.12086
       O    16.41623   -9.68559  -15.21134
      H1    16.02614   -8.96016  -15.66972
       H    10.36602  -16.45886  -14.11877
       O    11.19819  -16.19952  -14.59234
      H1    11.08735  -15.24722  -14.81860
       H    19.11839  -11.58348  -12.39808
       O    18.38927  -11.52435  -11.77057
      H1    17.59867  -11.45344  -12.27478
       H    10.85393   -8.82415  -18.04755
       O    11.06098   -9.69958  -18.40835
      H1    10.60464  -10.38227  -17.80507
       H    16.47236  -15.51603  -14.59897
       O    15.98405  -14.79050  -14.15338
      H1    15.26044  -14.72677  -14.80217
       H     8.87598  -12.00307  -13.11560
       O     8.58129  -12.11722  -14.01652
      H1     7.68416  -12.61157  -13.94466
       H    16.12639  -12.60966  -13.67649
       O    15.82326  -11.70587  -13.50130
      H1    16.12463  -11.19383  -14.29066
       H    14.74970   -5.71061  -17.01060
       O    15.64199   -5.54601  -16.70798
      H1    15.44157   -5.69735  -15.70333

