111
frame 0 | Written by MDAnalysis XYZWriter (release 2.4.3)
       H     8.20204  -11.01260   10.80171
       O     8.76839  -11.67326   10.39092
      H1     8.32338  -12.47501   10.70115
       H     5.44408  -10.59265    8.17829
       O     5.14899  -11.17030    8.86493
      H1     5.75732  -11.06009    9.56889
       H     6.39730  -10.41332   12.04477
       O     6.75261  -10.00145   11.21203
      H1     7.33371   -9.32780   11.60879
       H    -0.19705  -13.56574    5.44148
       O    -0.22876  -12.66340    5.66544
      H1     0.59293  -12.53199    6.12539
       H    -0.31867  -12.12682   12.62242
       O    -0.15941  -12.40563   11.74005
      H1    -0.92630  -12.08253   11.13849
       H     4.55237  -14.18654   11.23734
       O     5.31617  -14.73835   11.49866
      H1     5.75434  -14.80846   10.61961
       H     5.43536  -12.24736    1.97462
       O     5.45103  -13.06861    2.42506
      H1     4.91291  -13.75421    1.99045
       H     3.41683  -20.19296    8.98378
       O     4.01831  -19.46238    9.24805
      H1     3.61175  -18.65766    8.97164
       H    -0.44143  -14.87707    3.48054
       O     0.05245  -15.21745    4.23590
      H1     0.97701  -14.93972    4.00631
       H     4.51372  -12.73273    8.11635
       O     3.78653  -13.33445    7.84123
      H1     4.12882  -13.96420    7.26151
       H     6.50106  -14.98989    2.80744
       O     6.83921  -15.79212    2.40807
      H1     6.82035  -15.48483    1.44696
       H     7.32526  -17.12680    8.34727
       O     7.92409  -16.95258    9.06551
      H1     7.69418  -17.56015    9.77376
       H     4.96503   -9.31504    5.79412
       O     5.54454  -10.04593    6.07484
      H1     6.40208   -9.90976    5.59104
       H     3.27189  -17.43575    7.07798
       O     3.40431  -17.24695    8.01469
      H1     2.82311  -16.51223    8.28742
       H    -0.26776  -18.22130    8.36226
       O    -0.17220  -17.26063    8.22140
      H1     0.50293  -17.02192    8.81217
       H     3.23439  -10.40715   14.63121
       O     3.56885   -9.91467   13.89298
      H1     3.22042  -10.33226   13.09425
       H    -0.59478  -11.85915    8.03858
       O    -1.40281  -12.00882    8.59362
      H1    -1.95200  -12.63822    8.14829
       H     3.93698  -17.13398    5.16227
       O     3.50258  -17.97998    5.11213
      H1     3.20974  -17.98102    4.20364
       H     4.78818  -11.60605    5.09500
       O     4.20670  -12.19054    4.65408
      H1     4.58762  -12.46003    3.80918
       H     7.28550  -12.63144   12.74099
       O     7.59861  -13.49890   12.39997
      H1     6.77809  -13.90912   12.23436
       H     3.36043   -7.96898    5.67528
       O     3.69782   -8.54357    4.93584
      H1     2.95490   -9.11586    4.67113
       H     1.75501  -10.12714   10.04382
       O     1.19012   -9.56133    9.49334
      H1     1.51333   -8.63879    9.62341
       H    -0.12865  -17.31913    6.59037
       O    -0.06823  -17.51728    5.60120
      H1    -0.03838  -16.63717    5.23317
       H     3.74065  -10.58660   10.53350
       O     3.03933  -10.77854   11.17428
      H1     2.62465  -11.62630   10.88185
       H    -0.53735  -11.03014    5.01025
       O    -0.33497  -10.32489    4.37320
      H1    -0.52294   -9.45886    4.69528
       H     2.28752  -11.74528    7.53985
       O     1.36708  -11.61227    7.71685
      H1     1.26196  -10.68208    7.95593
       H     8.12199  -12.23389    5.31485
       O     8.36652  -13.19995    5.34865
      H1     8.77076  -13.32552    4.47908
       H     1.39104  -10.64245    4.00661
       O     2.30774  -10.65506    3.83178
      H1     2.86450  -11.24706    4.34743
       H     1.98510  -15.15947   10.44572
       O     1.66437  -16.07753   10.25493
      H1     2.13336  -16.62711   10.89517
       H     6.24591  -18.42222    6.88823
       O     6.40008  -17.45893    6.92151
      H1     7.08285  -17.41185    6.25478
       H     3.16403  -13.61915    4.31358
       O     2.80101  -14.50696    4.15683
      H1     3.02899  -14.71165    3.18851
       H     1.32535   -7.33792    6.89080
       O     2.24832   -7.45961    6.96968
      H1     2.48307   -7.36759    7.93461
       H     6.56177  -14.28266    8.39698
       O     6.87555  -14.45387    9.28917
      H1     7.47199  -15.18853    9.03949
       H     1.49379  -13.24071    9.92951
       O     2.38592  -13.52154   10.23204
      H1     2.86555  -13.45097    9.40352
       H     4.72744  -15.61551   13.18838
       O     4.50147  -16.45253   13.64684
      H1     3.97410  -16.99187   13.06316
       H     0.23677  -15.45398   10.88048
       O    -0.54047  -15.01612   11.25474
      H1    -0.14355  -14.14244   11.40614
       H     6.88112  -13.69685    6.22756
       O     6.15933  -14.12735    6.70126
      H1     6.18047  -15.05782    6.52981

