111
frame 1 | Written by MDAnalysis XYZWriter (release 2.4.3)
       H    -5.96793  -16.92472   11.77643
       O    -6.07964  -16.36979   10.93530
      H1    -6.57507  -16.83829   10.20785
       H    -6.01060  -18.68811   13.63555
       O    -5.38589  -19.45840   13.54576
      H1    -4.46413  -19.25440   13.53171
       H    -0.00856  -16.29803    1.69115
       O     0.94914  -16.37683    1.87183
      H1     1.46401  -15.59035    1.67377
       H     0.39232  -13.42391    5.61078
       O     0.17383  -12.49927    5.87821
      H1     0.98315  -12.18759    6.26447
       H     0.32616  -12.32039   11.33431
       O     0.08798  -12.93277   10.60934
      H1    -0.42893  -12.32965   10.14093
       H    -5.84409  -17.49162    6.68293
       O    -5.76379  -17.02407    5.83084
      H1    -6.04156  -17.66318    5.19552
       H    -1.94658  -16.13676   13.76794
       O    -2.12986  -16.70173   14.52507
      H1    -2.88597  -17.19488   14.16459
       H    -0.01686  -14.98943    4.33123
       O     0.52696  -15.22258    5.10536
      H1     1.35200  -14.95328    4.75193
       H     6.89374  -17.50385    8.72962
       O     7.56879  -17.48678    9.46187
      H1     7.30139  -18.01165   10.23619
       H    -3.85365  -17.31482    5.14436
       O    -2.90256  -17.39549    5.38186
      H1    -2.50485  -17.85816    4.66257
       H    -4.75797  -15.40171   10.33761
       O    -4.01757  -14.78352   10.05012
      H1    -3.14263  -15.19873   10.09115
       H     4.21728  -17.42705    7.69344
       O     4.37960  -17.36341    8.62214
      H1     3.65071  -16.88780    9.03577
       H     0.06470  -19.29710    8.50836
       O    -0.25392  -18.37256    8.71081
      H1     0.56122  -18.07642    9.10923
       H    -4.32724  -14.33586   11.59322
       O    -4.60845  -14.01393   12.49381
      H1    -5.41345  -13.49793   12.36644
       H    -1.99446  -18.86126    2.37157
       O    -1.90853  -19.44306    3.15124
      H1    -0.97949  -19.29514    3.29723
       H    -6.84899  -18.67863    8.42143
       O    -6.29377  -17.96216    8.83116
      H1    -5.41731  -18.24149    9.01250
       H    -2.53657  -17.58507    8.57251
       O    -3.45992  -17.39537    8.39381
      H1    -3.42027  -17.11914    7.46224
       H     3.94981  -16.68038    5.53172
       O     3.44575  -17.39278    5.94699
      H1     2.50526  -17.22141    5.71421
       H    -2.77339  -15.31114    6.07607
       O    -3.07878  -14.46170    5.84458
      H1    -3.94890  -14.58617    5.41363
       H     3.05293  -19.03057   12.12913
       O     3.47093  -18.33379   11.61555
      H1     3.99381  -18.88222   10.92530
       H    -0.95876  -13.88536   12.95469
       O    -0.68617  -14.83287   12.98557
      H1    -0.78325  -15.26988   12.12286
       H    -1.55183  -18.94094   11.75701
       O    -0.73988  -18.80666   11.28417
      H1    -0.93992  -18.81300   10.37512
       H     0.05467  -17.70812    7.03215
       O     0.50348  -17.68370    6.15113
      H1     0.31712  -16.78643    5.80811
       H     2.55404  -14.93458   12.85866
       O     1.99208  -14.36724   13.35131
      H1     1.10414  -14.68196   13.27746
       H     2.80558  -17.65637   15.79325
       O     2.58393  -17.49628   14.85964
      H1     3.12459  -16.77877   14.51716
       H     2.22707  -15.55324   10.00443
       O     2.00527  -16.49804    9.88923
      H1     2.32816  -17.00460   10.59580
       H     6.18652  -18.16001    6.74567
       O     6.40210  -17.21255    6.58479
      H1     6.87579  -17.18835    5.73721
       H     3.99761  -14.33015    4.80980
       O     3.48012  -15.08014    4.48333
      H1     3.53106  -14.90223    3.54686
       H     0.75805  -18.70242    4.50685
       O     0.65114  -18.84693    3.52197
      H1     1.12058  -18.05907    3.08738
       H    -1.92036  -13.33488    3.15369
       O    -1.69244  -14.21513    3.46883
      H1    -2.30289  -14.35749    4.23447
       H    -4.13415  -13.91135    8.64922
       O    -4.38219  -13.36106    7.90472
      H1    -3.71258  -13.61857    7.23389
       H    -2.16942  -18.94363   14.09199
       O    -2.58158  -19.26922   13.31097
      H1    -2.33848  -20.21108   13.39373
       H     0.83758  -20.02897   14.08599
       O     0.48011  -19.95480   14.96963
      H1     0.51374  -18.98739   15.14726
       H     1.69239  -13.65196   10.16418
       O     2.62312  -13.92333   10.22663
      H1     3.11465  -13.56282    9.42970
       H     4.70226  -15.34434   12.57381
       O     4.19105  -16.01912   13.05021
      H1     4.13090  -16.89259   12.55702
       H    -0.61656  -16.44027   10.14295
       O    -1.15575  -15.68171   10.37080
      H1    -0.73908  -14.79624   10.30565
       H     6.05397  -14.28872    6.73766
       O     5.52456  -14.85931    7.27718
      H1     5.90505  -15.75484    7.13406

