111
frame 11 | Written by MDAnalysis XYZWriter (release 2.4.3)
       H    -7.26626   -9.73762    3.91724
       O    -6.63633   -9.53459    4.61060
      H1    -7.04906   -8.79855    5.10936
       H    -5.46360  -16.48100   11.50023
       O    -4.97400  -16.51625   10.66126
      H1    -4.90903  -17.46138   10.39843
       H    -8.04906   -8.54210    9.22382
       O    -8.97398   -8.45142    8.83358
      H1    -9.24877   -9.39696    8.71602
       H    -5.32221  -16.95393   13.34800
       O    -5.64200  -16.07988   13.40485
      H1    -4.88984  -15.48466   13.38461
       H    -5.50864  -16.50673    6.36820
       O    -5.91015  -17.20487    5.86951
      H1    -5.50285  -17.15480    4.97478
       H    -9.49405  -12.26284    7.48121
       O    -9.54127  -12.37966    6.53613
      H1   -10.51123  -12.57585    6.41382
       H    -9.69469  -11.99856   10.00349
       O    -8.92750  -11.48414    9.79735
      H1    -8.23240  -12.13763    9.73996
       H    -7.97366  -10.86963   11.60239
       O    -7.53687  -10.94455   12.46170
      H1    -6.58850  -10.80985   12.22784
       H   -10.33312   -8.57102   11.49164
       O   -10.36769   -9.50759   11.79904
      H1   -11.13057   -9.83733   11.25264
       H    -8.08155  -12.71112   13.32726
       O    -8.75230  -13.30888   13.82228
      H1    -9.33895  -12.71486   14.31320
       H    -8.06663  -16.30771    7.04053
       O    -9.00207  -16.67530    6.97990
      H1    -9.38856  -16.17175    7.69296
       H    -5.14898  -10.06622    3.85510
       O    -4.34362  -10.62892    3.69724
      H1    -3.64058  -10.31091    4.25430
       H    -1.87694  -15.51915    9.14814
       O    -1.86870  -14.73624    8.57511
      H1    -2.54729  -14.54416    7.87029
       H    -4.12964  -13.16421   12.24060
       O    -4.07410  -14.14746   12.37825
      H1    -3.93877  -14.40975   11.44280
       H    -5.76932   -8.44680   10.00246
       O    -6.35735   -8.58891    9.24822
      H1    -5.81013   -8.95257    8.57927
       H    -1.99814  -11.99507   10.27589
       O    -1.70735  -11.76823   11.14868
      H1    -0.79859  -12.08994   11.19589
       H    -8.58645  -16.58784   10.79726
       O    -9.08591  -17.38881   10.82098
      H1    -8.88467  -17.91310   10.05447
       H    -9.64077  -10.91079    5.35911
       O    -9.65699  -10.13815    4.70430
      H1    -8.89052  -10.17281    4.15362
       H    -0.56630  -10.21534    7.37317
       O    -1.23976  -10.93194    7.38919
      H1    -0.95334  -11.55261    6.65900
       H    -3.69100  -11.19712   12.62272
       O    -4.62023  -11.01722   12.85946
      H1    -4.62764  -10.69180   13.83252
       H    -3.67241  -12.95075    7.16649
       O    -3.69996  -13.85153    6.74415
      H1    -4.36254  -14.33819    7.21590
       H    -7.66157  -14.71438    3.67105
       O    -7.00203  -14.85538    4.32793
      H1    -7.10092  -15.69979    4.72104
       H    -9.14968  -19.44189    8.64336
       O    -8.42817  -18.78511    8.60301
      H1    -8.71469  -18.17944    7.88557
       H    -1.19914  -13.74735   14.25813
       O    -2.06319  -13.35200   14.09914
      H1    -2.51609  -13.73069   13.33941
       H    -3.93271   -9.14010    6.89402
       O    -4.81592   -9.54726    6.98992
      H1    -4.99939  -10.06883    6.19543
       H   -11.10570  -14.37414    9.56548
       O   -11.08608  -13.50695    9.93835
      H1   -11.78839  -13.46551   10.59168
       H    -5.93913   -5.49984    8.25506
       O    -5.91242   -5.72884    9.18433
      H1    -6.23165   -6.64375    9.25693
       H    -9.17173  -14.39485   10.92668
       O    -8.27984  -14.67570   11.00887
      H1    -7.98259  -14.33151   11.83068
       H    -4.40490   -9.49893   11.46160
       O    -4.24202   -8.68207   10.99402
      H1    -4.41156   -7.99978   11.66534
       H    -6.00073  -14.42696    8.40206
       O    -5.73431  -15.28900    8.10811
      H1    -5.47772  -15.62890    8.96695
       H    -8.46560   -8.02976   14.08797
       O    -8.62708   -8.94799   14.23615
      H1    -8.22884   -9.35190   13.46178
       H    -2.66450  -13.94775    3.59797
       O    -2.22956  -14.35018    4.41419
      H1    -2.90864  -14.16043    5.12784
       H    -6.67050  -12.77160    5.33332
       O    -6.96444  -12.32210    6.11446
      H1    -7.89050  -12.61040    6.19296
       H   -10.44479  -16.82163    9.77672
       O   -11.04212  -16.22434    9.24159
      H1   -11.68904  -16.72643    8.73184
       H    -5.45483  -12.31825    9.00363
       O    -6.35834  -12.62485    8.83642
      H1    -6.50726  -12.39414    7.89688
       H    -8.45188   -8.08719    6.82941
       O    -8.59451   -7.92643    5.91687
      H1    -9.10582   -8.69850    5.62010
       H    -2.82154  -11.35967    8.37011
       O    -3.73231  -11.62013    8.42433
      H1    -4.20496  -10.92576    8.01604

