111
frame 0 | Written by MDAnalysis XYZWriter (release 2.4.3)
       H   -15.65887    0.50158   -6.25144
       O   -15.08761   -0.20930   -6.62470
      H1   -14.55079    0.16609   -7.28327
       H    -9.55817   -1.87240  -10.05523
       O   -10.42376   -1.45499  -10.10274
      H1   -10.75198   -1.40253  -11.01585
       H   -17.04082   -2.16456  -11.01205
       O   -16.30113   -1.67590  -11.46378
      H1   -15.58068   -2.24331  -11.72559
       H   -17.39836   -0.21628  -12.29210
       O   -17.71636    0.69004  -12.25034
      H1   -18.38318    0.73958  -12.89507
       H   -14.81701   -0.64983  -13.95566
       O   -14.57357    0.19152  -13.49340
      H1   -13.87630    0.64351  -14.04892
       H    -9.15269   -1.83774   -7.96269
       O    -8.82781   -2.76026   -8.21966
      H1    -7.97996   -2.69230   -8.71149
       H   -17.57379   -5.37469  -15.47937
       O   -18.50908   -5.25642  -15.33270
      H1   -18.71736   -5.94351  -14.65103
       H   -14.52078    0.38572   -9.70044
       O   -14.17082   -0.47650  -10.01860
      H1   -14.92343   -0.89125  -10.49388
       H   -12.60179   -5.56523  -10.72816
       O   -13.07536   -4.83854  -10.30646
      H1   -12.40491   -4.39330   -9.67491
       H   -14.09466   -9.35246  -10.74833
       O   -14.82940   -9.98949  -10.63524
      H1   -15.62674   -9.42365  -10.77848
       H   -14.99600   -4.87220  -10.10746
       O   -15.91248   -5.08052  -10.07671
      H1   -16.19310   -4.64046   -9.25064
       H   -14.54214   -1.98039   -6.33146
       O   -14.35987   -2.93994   -6.43792
      H1   -13.80041   -2.94474   -7.22457
       H   -14.87520    1.76170  -12.27696
       O   -15.52001    2.29380  -11.76070
      H1   -16.25443    1.66979  -11.60446
       H   -15.69090   -3.86716   -7.12827
       O   -16.52029   -4.19100   -7.52051
      H1   -17.13832   -3.43848   -7.46286
       H   -12.71338    0.12591   -9.21384
       O   -12.11436    0.61639   -8.63764
      H1   -11.55390   -0.03252   -8.31045
       H   -16.68443   -8.18729  -11.99654
       O   -17.10445   -8.96083  -11.57036
      H1   -17.54511   -8.71060  -10.74512
       H   -12.53787   -9.44564   -9.20777
       O   -12.51630   -8.54244   -9.51482
      H1   -13.02108   -8.07734   -8.88639
       H   -12.78716   -0.47779  -12.30445
       O   -11.88007   -0.64020  -12.57320
      H1   -11.72177   -0.04385  -13.33360
       H   -12.25954   -6.10441  -13.77433
       O   -11.92679   -5.26005  -14.11870
      H1   -11.18589   -5.51863  -14.68227
       H   -11.55335   -7.40333  -10.38683
       O   -10.90489   -6.93453  -10.93831
      H1   -11.43087   -6.91588  -11.79564
       H   -19.21138   -1.22114  -10.44881
       O   -18.61112   -2.00109  -10.21016
      H1   -18.27034   -1.93764   -9.33033
       H   -14.96111   -5.59032  -15.75040
       O   -15.52802   -5.28641  -15.06091
      H1   -15.71564   -6.10241  -14.53796
       H   -11.24864   -2.11642  -13.08108
       O   -10.78148   -2.90664  -13.40928
      H1   -11.36759   -3.69126  -13.33780
       H   -13.84562   -3.49723  -17.31915
       O   -14.35039   -3.76355  -18.09472
      H1   -15.18273   -3.31185  -18.13991
       H    -7.83597   -0.47764  -12.82883
       O    -7.61443   -1.28143  -13.41739
      H1    -8.44243   -1.63507  -13.70958
       H   -13.49931   -5.73436   -8.56561
       O   -13.53589   -6.52051   -7.95618
      H1   -12.71216   -6.36303   -7.41940
       H   -13.48430   -7.89990  -13.46687
       O   -12.68594   -7.63919  -12.97296
      H1   -12.01231   -8.31927  -13.24322
       H   -14.85681   -1.49573  -15.93472
       O   -15.05548   -2.13288  -15.19493
      H1   -15.35669   -2.97877  -15.52944
       H   -11.49590   -3.04164   -7.50004
       O   -11.98368   -2.86745   -8.33004
      H1   -11.37216   -2.48630   -8.92543
       H   -17.72018   -6.58382  -12.59719
       O   -16.75529   -6.48259  -12.44710
      H1   -16.57402   -5.68082  -11.90890
       H   -13.55267   -2.82781  -15.56260
       O   -12.82306   -3.33942  -15.84866
      H1   -12.72641   -4.11126  -15.24546
       H    -9.25120   -4.73379   -8.75309
       O   -10.10222   -5.15348   -8.97922
      H1    -9.94300   -5.79948   -9.64593
       H   -10.40646   -1.50412  -17.19963
       O   -10.35702   -1.86635  -16.25815
      H1   -11.14635   -2.42435  -16.11834
       H    -9.37678   -4.03062  -12.40226
       O    -8.76225   -4.21297  -11.65572
      H1    -9.39814   -4.42499  -10.98976
       H   -18.25481   -3.80984  -14.36351
       O   -18.42914   -3.05302  -13.75082
      H1   -17.55332   -2.87837  -13.39160
       H   -10.85423   -5.51903   -7.54225
       O   -11.28195   -5.72866   -6.68556
      H1   -10.90607   -6.57349   -6.58447
       H   -14.23998   -3.78331  -12.93459
       O   -14.13760   -3.18893  -12.18027
      H1   -13.54462   -3.68951  -11.59789

