111
frame 7 | Written by MDAnalysis XYZWriter (release 2.4.3)
       H   -19.44422    1.27015   -5.40348
       O   -19.35677    1.43149   -6.33551
      H1   -18.41241    1.59900   -6.46149
       H   -18.03993   -0.46606   -9.42670
       O   -17.26307    0.00968   -9.58654
      H1   -17.32211    0.82654   -9.09880
       H   -16.66408   -5.13327   -1.32815
       O   -16.80733   -4.26439   -1.63639
      H1   -17.10699   -4.43613   -2.62161
       H   -16.55093   -7.48043   -1.15554
       O   -16.02728   -6.68882   -0.87766
      H1   -15.33414   -6.75771   -1.49290
       H   -16.74195   -5.11309   -7.74227
       O   -17.39835   -5.41173   -7.08554
      H1   -17.31417   -4.94357   -6.25010
       H   -18.07596   -4.30256   -0.13283
       O   -18.47201   -4.56010    0.72689
      H1   -19.16444   -3.90884    0.99465
       H   -13.55684   -4.12521   -4.51949
       O   -14.49648   -3.80970   -4.37384
      H1   -15.00147   -4.64986   -4.31396
       H   -12.66705   -2.78223   -1.30659
       O   -11.83547   -2.97908   -1.85040
      H1   -11.03391   -2.93293   -1.26931
       H   -19.63576   -4.28874  -10.29041
       O   -18.86589   -3.74790  -10.29670
      H1   -18.13109   -4.30672  -10.02812
       H   -10.77629   -7.39699   -5.34782
       O   -10.83043   -7.02658   -4.47083
      H1   -11.18609   -6.16283   -4.51558
       H   -15.10950   -1.49813   -8.21677
       O   -15.43414   -2.14230   -8.88803
      H1   -15.62601   -1.57765   -9.62681
       H   -15.35826   -2.32935   -4.96205
       O   -15.71929   -1.42200   -4.98683
      H1   -15.23535   -0.82582   -4.45683
       H   -15.39930   -5.04789   -9.48615
       O   -16.25921   -4.71134   -9.20082
      H1   -16.18856   -3.72375   -9.15661
       H   -18.84474   -6.97682   -1.33624
       O   -19.39924   -6.16989   -1.16838
      H1   -19.16235   -5.87984   -0.27590
       H   -16.56757   -1.89765    1.83001
       O   -17.37066   -1.41884    1.76652
      H1   -17.61187   -1.51927    0.79901
       H   -16.82393   -9.33427   -1.33350
       O   -17.50178   -8.71411   -1.16240
      H1   -17.81418   -8.73004   -0.21070
       H   -18.49335   -4.76909   -4.53839
       O   -17.65447   -4.34945   -4.58117
      H1   -17.93027   -3.47679   -4.88039
       H   -14.56113   -7.10511   -7.96175
       O   -15.16620   -7.46384   -7.30155
      H1   -15.96675   -6.86887   -7.26996
       H   -18.65365   -1.93732   -6.44388
       O   -18.44584   -1.76766   -5.47624
      H1   -17.47716   -1.54899   -5.40112
       H   -13.08793   -0.05171   -3.88561
       O   -13.93380    0.42875   -3.79630
      H1   -13.94078    1.02890   -4.49929
       H   -14.83743   -9.30150   -4.47284
       O   -14.17258   -8.65766   -4.76357
      H1   -14.44758   -8.33588   -5.59943
       H   -12.34258   -5.20254   -8.68753
       O   -12.45938   -5.16631   -7.73053
      H1   -12.06151   -5.95178   -7.39223
       H   -16.31024    2.41141   -6.70696
       O   -16.67387    1.64091   -7.20753
      H1   -15.86696    1.20390   -7.56184
       H   -16.67549  -10.35710   -5.35281
       O   -16.36585  -10.38053   -4.43718
      H1   -17.02029  -10.61002   -3.79708
       H   -11.64259   -4.11323   -4.89836
       O   -11.97232   -4.67239   -4.16071
      H1   -11.73872   -4.11665   -3.36795
       H   -18.12207   -7.93563   -9.29024
       O   -18.16658   -8.00365  -10.26146
      H1   -17.25871   -7.80450  -10.52925
       H   -13.47803    0.71009   -8.48039
       O   -13.91917    0.11625   -7.89364
      H1   -13.60740    0.47358   -7.05559
       H   -17.70502   -2.45586   -1.91667
       O   -18.18642   -1.68730   -1.72778
      H1   -18.26925   -1.16259   -2.49417
       H   -19.15807   -9.12642   -3.30393
       O   -19.59758   -8.59790   -4.04397
      H1   -19.55126   -7.65898   -3.79490
       H   -14.09541    0.10690   -2.02827
       O   -14.00846    0.04275   -1.10733
      H1   -14.52793    0.81556   -0.75777
       H   -13.37849   -7.30689   -3.17199
       O   -13.38965   -6.47468   -2.66948
      H1   -12.68705   -6.05059   -3.06976
       H   -19.23215   -8.18601   -6.28170
       O   -19.15723   -7.66725   -7.10270
      H1   -18.50741   -6.89042   -6.92213
       H   -17.13190   -5.62617    1.53821
       O   -16.24523   -6.06559    1.66156
      H1   -15.95591   -6.48737    0.80787
       H   -17.15894    2.81389   -4.23671
       O   -17.53749    2.29779   -3.50683
      H1   -16.95088    1.54172   -3.47907
       H   -17.36474   -9.92056   -7.61296
       O   -16.46414   -9.81757   -7.25721
      H1   -16.14516   -8.93623   -7.51257
       H   -12.19136   -3.44328   -6.80576
       O   -11.51554   -2.87334   -6.38543
      H1   -10.65314   -3.23723   -6.58232
       H   -15.19343   -3.01303   -1.28366
       O   -14.46771   -2.66879   -0.76442
      H1   -14.31622   -1.77810   -1.08593

