111
frame 7 | Written by MDAnalysis XYZWriter (release 2.4.3)
       H     2.89090   16.15994  -10.12361
       O     2.41323   16.00331  -10.91038
      H1     3.01274   15.40389  -11.40530
       H     3.19578   16.87654  -14.60697
       O     3.23401   17.67303  -15.07502
      H1     3.44828   17.49437  -15.95049
       H    -3.91815   13.89110  -11.16148
       O    -4.26448   13.02800  -10.93636
      H1    -4.27188   12.48382  -11.70987
       H    -3.62210   14.28865  -15.46080
       O    -2.93765   14.92623  -15.57025
      H1    -3.31108   15.45976  -16.28476
       H    -3.28141   16.26665  -12.83324
       O    -3.48388   17.01212  -13.40623
      H1    -3.00464   16.83424  -14.25593
       H     6.56605   16.32485  -12.86649
       O     6.56106   16.53987  -13.77156
      H1     6.64794   17.50724  -13.78402
       H     0.27775   16.79953  -13.38692
       O     0.35076   15.92156  -13.04792
      H1     0.98248   15.96398  -12.32641
       H     1.05312   12.69761  -13.15916
       O     1.39219   12.52908  -12.28411
      H1     0.59562   12.18157  -11.81323
       H     2.28310   15.08851  -14.21469
       O     3.22876   15.33402  -14.03573
      H1     3.77700   14.73344  -14.57692
       H     5.90184   15.70427  -15.36397
       O     6.03958   14.84449  -15.81467
      H1     5.27718   14.69486  -16.36595
       H    -1.92407   17.45934  -17.39822
       O    -1.05256   17.42557  -16.98209
      H1    -0.80032   16.48525  -17.00983
       H    -0.88863   18.28687  -10.56860
       O    -0.66324   18.42478   -9.63771
      H1    -1.41590   18.83731   -9.22713
       H    -1.34423   19.18771  -14.32751
       O    -1.93547   19.28556  -15.07594
      H1    -1.64127   18.68459  -15.77658
       H    -1.78651   13.49010  -13.80109
       O    -1.56551   13.87423  -12.93833
      H1    -0.68343   14.37928  -13.04164
       H     7.49975   16.24239  -10.66153
       O     6.82474   15.79166  -11.16650
      H1     7.23992   15.10625  -11.67212
       H     5.37762   13.60235  -13.66921
       O     5.84724   13.01926  -13.04523
      H1     5.42547   13.27067  -12.16830
       H     1.58430   14.07640   -6.24392
       O     1.47753   14.45045   -7.12849
      H1     1.64430   13.70997   -7.73508
       H     3.06916   19.24527  -11.21077
       O     2.10542   19.02057  -11.25245
      H1     1.98693   18.21916  -10.78785
       H     3.95708   14.21517  -18.82955
       O     4.07348   15.00331  -19.38157
      H1     3.54154   15.71987  -18.88920
       H     1.81002   18.37716  -14.23750
       O     1.00731   18.57677  -13.83778
      H1     1.32255   18.76873  -12.92040
       H     3.70988   16.67272   -8.05339
       O     4.05095   15.92367   -8.59407
      H1     5.00855   15.68191   -8.27478
       H    -5.16046   17.04856  -13.31115
       O    -6.12702   16.96757  -13.26386
      H1    -6.39860   17.24241  -14.13810
       H    -1.56122   11.64073  -10.50051
       O    -1.05812   11.62049  -11.35613
      H1    -1.43282   12.23591  -11.95647
       H    -5.66565   16.94279   -8.43331
       O    -5.95399   17.36900   -9.23172
      H1    -5.18551   17.72299   -9.55231
       H     5.29402   14.80608  -10.69613
       O     4.63559   14.12614  -10.82325
      H1     3.97802   14.28887  -10.16916
       H     3.58436   12.55202  -16.35766
       O     3.79469   12.46223  -15.37233
      H1     4.42524   11.74810  -15.32357
       H     2.52264   17.59553  -17.93863
       O     3.33820   17.10074  -17.99778
      H1     3.80589   17.80088  -18.47359
       H     0.12217   14.23268  -16.34278
       O    -0.59127   14.63764  -16.90738
      H1    -1.38451   14.69433  -16.33266
       H    -2.33884   18.42569  -12.64102
       O    -1.47030   18.70445  -12.24346
      H1    -1.61472   19.66139  -12.09111
       H     1.72634   13.17754  -10.61371
       O     1.92071   13.40313   -9.69785
      H1     1.97405   14.38078   -9.75399
       H     0.35544   18.56290  -17.34927
       O     1.22836   18.95109  -17.56506
      H1     1.17005   19.78492  -17.06856
       H     2.02712   17.78197   -7.36501
       O     3.01447   17.91404   -7.26632
      H1     3.23254   18.77475   -7.68960
       H     4.77638   18.83421  -19.64153
       O     4.07125   19.52986  -19.54098
      H1     4.28751   19.90076  -18.62097
       H     1.84466   12.51662  -15.09781
       O     0.95839   12.91313  -14.96182
      H1     0.45782   12.07884  -14.98822
       H    -2.42229   14.91446  -11.82709
       O    -3.21864   15.37345  -11.40433
      H1    -2.96492   15.83038  -10.59592
       H    -2.66896   15.37839   -8.29340
       O    -2.89913   16.15513   -8.81017
      H1    -2.56991   16.90388   -8.30319
       H     0.83356   15.86860   -7.61968
       O     0.46773   16.74180   -7.71004
      H1    -0.05950   16.73721   -8.52434

