111
frame 7 | Written by MDAnalysis XYZWriter (release 2.4.3)
       H   -10.30045  -16.90311   -4.16354
       O    -9.34882  -16.91675   -4.21085
      H1    -9.20993  -16.99778   -3.26493
       H   -14.61384  -14.25401   -0.72281
       O   -15.26167  -13.66188   -1.10049
      H1   -16.13325  -14.06347   -1.01871
       H   -14.81016   -9.87983   -0.06581
       O   -14.73952   -9.88496   -0.98508
      H1   -14.82849  -10.81915   -1.10897
       H   -10.53361  -13.06946  -10.59270
       O   -10.67680  -12.80691   -9.66936
      H1   -10.36357  -13.60654   -9.28524
       H   -10.68389  -15.77067   -6.97096
       O   -10.44367  -14.80431   -7.04420
      H1    -9.79080  -14.57595   -6.29220
       H   -16.78664  -15.74052   -3.94685
       O   -17.66078  -15.37368   -4.14068
      H1   -18.26525  -16.15750   -4.09350
       H    -9.77936  -13.45659   -1.14790
       O    -9.43001  -12.55363   -1.06974
      H1   -10.14525  -11.93939   -1.17616
       H   -13.24243  -14.39945    1.38778
       O   -12.80616  -13.70844    0.75170
      H1   -13.08527  -12.89875    1.20375
       H   -12.11901  -16.57590    1.91629
       O   -11.59804  -16.95612    1.22996
      H1   -11.27906  -16.24483    0.60634
       H   -14.83743   -9.30150   -4.47284
       O   -14.17258   -8.65766   -4.76357
      H1   -14.44758   -8.33588   -5.59943
       H    -9.87435  -10.95557   -6.48432
       O    -9.71277  -11.33278   -5.62845
      H1   -10.52439  -11.15081   -5.11527
       H    -8.68813  -15.18866   -4.51800
       O    -8.63350  -14.29711   -4.94181
      H1    -9.26245  -13.76687   -4.37849
       H    -6.29713  -17.34703   -4.06898
       O    -6.23290  -17.07470   -3.07171
      H1    -6.25788  -16.13531   -2.99348
       H   -16.67549  -10.35710   -5.35281
       O   -16.36585  -10.38053   -4.43718
      H1   -17.02029  -10.61002   -3.79708
       H    -7.93892  -10.52094   -5.16443
       O    -7.08159  -10.22613   -4.87670
      H1    -6.92723  -10.84248   -4.14319
       H   -17.48994  -12.40749   -2.49180
       O   -17.72562  -11.48030   -2.53081
      H1   -18.67510  -11.43356   -2.40950
       H   -12.78097   -9.73373   -4.44574
       O   -12.23528  -10.54432   -4.18619
      H1   -12.96884  -11.20068   -3.99719
       H    -5.13116  -14.05502   -2.41447
       O    -6.02484  -14.32247   -2.04636
      H1    -5.85445  -14.64693   -1.16659
       H    -8.45981   -9.30421   -3.34301
       O    -9.07875   -8.82606   -2.78486
      H1    -9.59804   -8.21856   -3.28362
       H    -7.91116  -11.67663   -2.02855
       O    -7.04563  -11.52248   -2.49916
      H1    -6.59265  -12.30218   -2.16626
       H   -15.20292  -11.88774   -4.18931
       O   -14.44825  -12.45397   -4.01326
      H1   -14.63068  -12.82092   -3.15335
       H    -7.47438  -15.63538    0.27885
       O    -6.89227  -15.17122    0.91910
      H1    -7.33924  -14.42770    1.36700
       H    -8.06981  -15.09332   -8.99689
       O    -7.85000  -14.80794   -8.04471
      H1    -8.69886  -15.03866   -7.58159
       H    -8.38668  -12.12400    2.30129
       O    -8.53430  -12.91458    1.74410
      H1    -8.80613  -12.58167    0.87862
       H   -13.67616  -12.92007   -7.05759
       O   -13.22551  -13.72333   -6.69609
      H1   -12.26207  -13.44557   -6.67943
       H   -11.24990  -14.93827   -1.52803
       O   -10.89701  -15.07584   -0.64915
      H1   -11.43422  -14.40902   -0.17857
       H   -10.71054  -18.32077   -7.26924
       O   -10.65025  -17.47296   -6.84009
      H1   -10.09746  -17.56242   -6.09116
       H   -13.59130  -18.92322   -5.19184
       O   -13.02469  -18.19956   -5.32982
      H1   -13.46339  -17.52039   -5.82506
       H   -14.84196  -12.10846   -9.41753
       O   -14.45503  -11.76683   -8.59432
      H1   -15.04997  -11.07483   -8.25916
       H    -8.62114  -17.70765   -1.19665
       O    -8.42836  -16.79223   -1.37144
      H1    -7.56602  -16.79684   -1.86215
       H    -7.10859  -13.14251   -5.55764
       O    -6.26091  -12.96768   -6.03963
      H1    -6.32597  -12.00848   -6.18181
       H   -12.28278  -17.22315   -2.52215
       O   -12.07949  -16.69206   -3.28999
      H1   -12.41486  -17.20074   -4.03298
       H   -14.68330  -14.59240   -4.34421
       O   -14.87171  -15.37336   -3.86890
      H1   -14.03349  -15.63348   -3.48371
       H   -10.30180   -9.68264   -1.89031
       O   -11.02126  -10.16494   -1.52495
      H1   -11.58728  -10.45912   -2.25401
       H   -12.17058  -13.49230   -4.33935
       O   -11.73265  -13.87108   -3.56446
      H1   -11.89297  -14.82003   -3.75083
       H   -11.95218  -17.85895   -0.27387
       O   -12.53753  -18.26198   -0.90604
      H1   -13.35259  -18.05992   -0.49728
       H   -15.12452  -16.41557   -7.70209
       O   -14.20850  -16.27396   -7.41209
      H1   -13.97627  -15.29706   -7.63542

