111
frame 8 | Written by MDAnalysis XYZWriter (release 2.4.3)
       H    17.30253  -12.05691  -16.89033
       O    18.26396  -12.01712  -16.95140
      H1    18.45782  -11.22574  -16.33948
       H    14.58609   -6.10343  -19.46626
       O    14.88438   -6.79927  -18.84299
      H1    15.49612   -7.33953  -19.31474
       H    11.74360   -9.91224  -11.61782
       O    11.43109   -8.99096  -11.40220
      H1    12.04271   -8.34078  -11.71804
       H    15.19807  -13.38841  -16.01702
       O    14.88745  -14.11797  -15.54339
      H1    15.52523  -14.41351  -14.88883
       H    13.87949   -4.76523  -13.62614
       O    13.57082   -4.93815  -14.48360
      H1    13.10200   -5.78583  -14.41770
       H    12.58038  -16.68505  -15.64906
       O    12.56834  -17.20806  -16.42697
      H1    13.21147  -17.89845  -16.32833
       H    11.82059   -6.51631  -17.72601
       O    12.29348   -5.72576  -17.41527
      H1    13.22942   -6.02101  -17.41818
       H    10.06681  -10.01455  -14.38548
       O    10.24608   -9.49267  -15.20141
      H1     9.76141   -8.66250  -15.12115
       H    17.37319  -16.15489  -14.08954
       O    16.96584  -15.29517  -13.95479
      H1    17.66105  -14.65112  -13.69611
       H    14.28443  -12.13241  -11.27066
       O    15.24960  -12.24566  -11.32164
      H1    15.41392  -13.18231  -11.45749
       H    12.90946   -9.51692  -18.74550
       O    13.73752   -9.34450  -18.36626
      H1    13.90319   -8.42155  -18.58321
       H    14.03384  -12.70945  -19.45332
       O    14.53962  -12.23932  -18.76655
      H1    14.07100  -11.36350  -18.77616
       H    11.03456  -13.46966  -17.69070
       O    11.84977  -13.09759  -17.41898
      H1    12.57475  -13.64578  -17.69649
       H    18.92789   -9.95597  -14.63588
       O    18.38005   -9.81428  -15.40628
      H1    17.47382   -9.90338  -15.11253
       H    12.99589  -14.82772   -9.67774
       O    13.28467  -13.93331   -9.82405
      H1    13.97652  -13.95949  -10.44836
       H    18.11725  -16.36673  -17.93162
       O    18.38343  -17.24241  -17.64865
      H1    19.26747  -17.11489  -17.22825
       H    11.69125  -12.60206  -11.37702
       O    12.12599  -11.96863  -11.98226
      H1    12.17565  -12.44118  -12.83185
       H    14.71456   -8.63535  -15.31183
       O    13.87612   -9.11502  -15.40352
      H1    13.59034   -9.17541  -16.30466
       H    12.08784  -13.32633  -15.43615
       O    12.58303  -13.25339  -14.60281
      H1    13.48636  -13.43092  -14.80195
       H    16.16660   -9.25629  -11.40546
       O    16.31109   -8.50770  -10.82362
      H1    15.92688   -8.66937   -9.97928
       H    12.49554   -7.10067  -13.19294
       O    12.05779   -7.20046  -14.09949
      H1    12.48339   -8.00037  -14.51313
       H    18.50407   -8.72928  -18.81383
       O    19.26822   -8.63433  -18.22125
      H1    20.07024   -8.94409  -18.72646
       H    17.17339  -15.03698  -20.03708
       O    17.52693  -14.99073  -19.17033
      H1    18.27873  -14.36251  -19.24480
       H    19.24281  -10.62942  -12.08877
       O    19.23219   -9.73371  -12.45471
      H1    18.29783   -9.47586  -12.20190
       H    15.12647  -10.65092  -15.89226
       O    15.60684  -11.41407  -16.24572
      H1    15.28938  -11.40350  -17.19280
       H    17.24332  -11.27958   -8.77542
       O    16.55313  -11.93467   -8.82480
      H1    16.19336  -11.84579   -9.73682
       H    17.60259   -6.46996  -14.21999
       O    18.45059   -6.04559  -14.16265
      H1    19.03432   -6.37798  -14.85767
       H    16.22399   -6.94425  -15.92370
       O    15.84523   -7.10715  -15.05728
      H1    15.18252   -6.41537  -14.81863
       H    11.89280  -16.43338  -13.28099
       O    12.82102  -16.28320  -13.53113
      H1    13.00282  -15.31531  -13.55474
       H    19.40948  -12.96465  -11.10307
       O    19.17753  -12.43816  -11.89665
      H1    19.99377  -12.35655  -12.42311
       H    18.28829  -11.80983  -18.93912
       O    18.19991  -11.81284  -19.91231
      H1    19.06771  -11.54524  -20.27061
       H    11.05801   -9.96418  -16.90803
       O    11.37118  -10.40001  -17.70076
      H1    11.28228  -11.42100  -17.51114
       H    15.90466  -15.23195  -12.41926
       O    15.04617  -15.01052  -11.99248
      H1    14.89066  -15.74247  -11.41874
       H    10.30285  -11.49484  -12.47155
       O     9.50578  -11.33052  -12.99953
      H1     9.06199  -12.20047  -13.10047
       H    14.08259  -15.00711  -16.96378
       O    13.70343  -15.22101  -17.82658
      H1    13.14781  -15.98073  -17.51790
       H    15.93460  -11.23601  -12.49068
       O    16.56708  -10.59154  -12.90407
      H1    17.45164  -10.85470  -12.69327
       H    17.63757   -7.17633  -17.90054
       O    16.99825   -6.63230  -17.46511
      H1    16.21118   -6.61273  -17.95825

