111
frame 0 | Written by MDAnalysis XYZWriter (release 2.4.3)
       H    -5.95997    5.73208   -5.51779
       O    -5.63044    4.98652   -6.07275
      H1    -5.93130    4.30471   -5.42528
       H    -7.67204    5.40603   -9.16472
       O    -8.10323    6.24987   -8.88001
      H1    -8.96894    6.01401   -8.52851
       H   -10.94964    5.69329   -6.77226
       O   -10.81658    5.65645   -7.69587
      H1   -10.72481    4.69988   -7.82960
       H    -4.97334    9.74574   -8.01034
       O    -5.86657    9.95594   -7.67621
      H1    -6.39304    9.49322   -8.34690
       H    -7.62082    7.98752   -9.48468
       O    -7.61509    8.95535   -9.41638
      H1    -8.54676    9.21489   -9.31866
       H    -2.75949    7.17158   -6.52751
       O    -2.70447    8.11861   -6.78836
      H1    -2.94380    8.15154   -7.72939
       H    -0.88250    5.58300  -14.07976
       O    -1.48374    4.93878  -14.50040
      H1    -1.45386    4.21248  -13.80198
       H    -3.98557    6.26180  -11.99229
       O    -4.30484    5.37189  -11.92743
      H1    -4.69670    5.30107  -12.79342
       H    -5.46518    4.09992  -14.72051
       O    -5.38628    5.00604  -14.48720
      H1    -4.87620    5.41516  -15.24994
       H    -6.96539    1.81106   -7.21508
       O    -7.10188    0.85297   -7.03541
      H1    -6.65057    0.65828   -6.18810
       H     0.56350    6.88610  -10.07217
       O     0.23037    6.02115  -10.34305
      H1     1.04888    5.47026  -10.44092
       H   -11.38270    7.39279  -12.92535
       O   -11.41922    6.83576  -12.17136
      H1   -10.58967    6.93561  -11.65639
       H    -6.99106    1.13541  -11.35576
       O    -7.76032    0.58633  -11.35798
      H1    -8.52766    1.12340  -11.05658
       H    -0.52365    1.21990  -11.80487
       O    -0.20318    1.82137  -11.18988
      H1    -0.82817    2.55786  -11.26747
       H    -8.19154    3.29072   -7.80569
       O    -7.18540    3.43297   -7.72171
      H1    -6.98253    4.14647   -7.14678
       H    -3.26324    8.80491   -9.80925
       O    -3.45945    9.50350   -9.15393
      H1    -3.09041   10.36998   -9.33747
       H    -6.33633    6.87759  -14.24818
       O    -7.11535    7.45507  -14.20458
      H1    -7.13120    7.51219  -13.27313
       H   -11.86588    3.67395  -11.70490
       O   -11.26115    4.03402  -12.36901
      H1   -11.34708    4.99563  -12.17511
       H   -10.91229    3.67872   -9.48309
       O   -10.38990    3.18037   -8.86197
      H1   -10.93986    2.37982   -8.76608
       H   -10.05314    3.90644  -15.75154
       O    -9.66299    3.22490  -15.13463
      H1    -9.12632    3.68274  -14.42096
       H    -3.57139    5.20299   -6.03175
       O    -2.69069    5.53849   -5.76235
      H1    -2.32856    4.78200   -5.26089
       H    -1.88546    6.54031  -10.19502
       O    -2.33116    7.34677  -10.50071
      H1    -1.65110    7.84228  -11.04041
       H    -2.83569    3.03233  -12.39903
       O    -2.18181    3.35283  -11.82058
      H1    -2.68402    4.19075  -11.53026
       H    -7.77418    3.55886  -12.31855
       O    -8.51913    3.99312  -12.79206
      H1    -9.35385    3.92036  -12.31694
       H    -3.08093    7.02587  -16.24202
       O    -3.43230    6.65117  -15.39290
      H1    -2.72481    6.01185  -15.18761
       H    -4.88174    1.26176   -9.07431
       O    -4.26766    1.94839   -8.99628
      H1    -4.23271    2.29555   -9.90467
       H    -5.57764    4.79378  -10.50097
       O    -6.41943    4.39421  -10.22313
      H1    -6.27625    4.00850   -9.32344
       H    -8.32425    6.01913  -12.47822
       O    -8.60258    6.82724  -11.87357
      H1    -8.33419    6.49760  -11.02243
       H    -2.86584    8.84645  -13.01458
       O    -3.70947    8.52295  -13.35971
      H1    -3.48806    7.89755  -14.11896
       H    -6.20404   -0.07762   -8.45962
       O    -5.48091   -0.60148   -8.90620
      H1    -6.00034   -1.15228   -9.49679
       H    -2.26310    4.87640   -7.35375
       O    -2.40063    4.49289   -8.26017
      H1    -2.93287    3.70981   -8.04294
       H    -7.87018   11.19253  -13.02959
       O    -7.82031   10.28183  -12.63888
      H1    -7.36599   10.36932  -11.74754
       H    -6.15653    3.16131  -11.38874
       O    -5.74443    2.47072  -11.98432
      H1    -6.16481    2.48542  -12.88080
       H    -6.76525    2.82623  -15.53843
       O    -6.33544    2.43490  -14.74469
      H1    -5.61952    2.02542  -15.22503
       H    -6.52356   11.82643  -10.06291
       O    -6.09798   11.11444  -10.55224
      H1    -6.45448   10.38597  -10.05437
       H    -7.44275    7.75253   -4.75792
       O    -6.55670    7.48832   -5.09738
      H1    -6.44512    8.21619   -5.69881
       H    -1.91327    0.70915   -6.30451
       O    -2.85200    0.59823   -6.58152
      H1    -3.21355    1.17231   -7.28141

