111
frame 7 | Written by MDAnalysis XYZWriter (release 2.4.3)
       H     6.19980  -18.21103   15.26235
       O     6.47888  -17.48520   14.72078
      H1     5.73401  -16.93488   14.72335
       H     8.61369  -18.94670   16.89111
       O     9.16747  -18.47072   17.48237
      H1     9.05985  -17.57604   17.13214
       H    -1.42078  -18.34745   17.59966
       O    -0.96744  -19.18640   17.30878
      H1    -0.08185  -19.18202   17.79599
       H    -5.72159  -16.54798   14.40324
       O    -5.79428  -16.18126   13.53391
      H1    -4.94023  -16.33257   13.06159
       H    -5.98425  -16.27773   18.06161
       O    -5.56398  -15.91184   17.28104
      H1    -6.11305  -15.13919   17.06425
       H     5.67766  -15.98289   20.14545
       O     6.43769  -16.01037   19.52826
      H1     6.36154  -15.22313   18.97285
       H    -7.89012  -13.27423   16.14888
       O    -7.00337  -13.71740   16.30673
      H1    -6.37237  -13.83663   15.55158
       H    -6.56726  -19.27571   14.95117
       O    -7.37904  -18.71998   15.02553
      H1    -8.10903  -19.33622   15.08775
       H    -5.88079  -12.78917   13.68013
       O    -5.41916  -13.53211   14.20573
      H1    -5.74003  -14.38855   13.85945
       H    -3.28087  -14.11691   16.47552
       O    -3.06270  -15.08094   16.48359
      H1    -3.85739  -15.48678   16.92467
       H    -2.48299  -11.59364   18.57335
       O    -2.82237  -10.72798   18.31708
      H1    -2.11624  -10.36959   17.72935
       H    -1.79277  -16.28589   19.01800
       O    -2.45920  -16.77989   18.57169
      H1    -2.64944  -16.14213   17.77058
       H    -1.15526  -13.80180   19.84703
       O    -1.36377  -12.84643   19.54730
      H1    -0.68298  -12.50197   18.88210
       H    -1.58719  -11.78213   14.75963
       O    -2.00032  -10.91302   14.74861
      H1    -1.30749  -10.39618   15.19847
       H    -4.13705  -15.68190   10.43110
       O    -3.71127  -15.71862   11.24478
      H1    -2.88380  -16.22925   11.20411
       H    -0.82662  -18.79142    9.28643
       O    -1.53086  -18.08479    9.36201
      H1    -1.02211  -17.44758    9.89014
       H    -7.92545  -15.66677   16.51598
       O    -8.50075  -16.36720   16.35130
      H1    -8.02264  -17.09695   15.88189
       H     3.53143  -19.81789   16.07544
       O     4.22939  -19.25083   15.73860
      H1     4.67169  -18.94921   16.55830
       H    -5.10054  -19.37402   16.65683
       O    -5.50163  -19.58187   17.53742
      H1    -4.77874  -19.77697   18.14826
       H     7.82226  -16.61615   15.55991
       O     8.46719  -16.27212   16.19909
      H1     7.98661  -15.73027   16.85682
       H    -4.02325  -18.82348   14.77692
       O    -4.80214  -19.35793   14.85633
      H1    -4.48567  -20.26282   14.64147
       H     2.83689  -17.94425   12.58424
       O     3.20917  -17.14084   12.16890
      H1     2.77714  -16.89401   11.29706
       H     5.64391  -17.28576   18.50783
       O     5.53150  -18.20093   18.10246
      H1     4.97495  -18.59944   18.76292
       H    -0.59056  -14.04696   12.83673
       O    -0.80095  -14.50488   13.67958
      H1    -1.73661  -14.73242   13.69349
       H     1.56977  -15.07078   15.43913
       O     0.85679  -15.71983   15.43244
      H1     0.17909  -15.31197   14.91405
       H     1.13577  -17.45332   18.07444
       O     1.21971  -16.45200   17.94736
      H1     0.99122  -16.18727   17.03575
       H     3.04363  -13.79401   16.56064
       O     2.54291  -13.04159   16.23163
      H1     3.21554  -12.29131   16.31543
       H     6.49621  -13.43828   16.84735
       O     6.53365  -14.23680   17.42138
      H1     5.67776  -14.64887   17.39803
       H     3.17444  -16.03018   17.68755
       O     3.87045  -15.53244   17.27488
      H1     3.84006  -15.73018   16.34163
       H    -6.87664  -18.47953   18.23087
       O    -7.21429  -17.72867   18.75108
      H1    -8.05113  -17.48481   18.32298
       H    -3.19678  -16.38199   15.22870
       O    -3.20574  -17.00846   14.48060
      H1    -2.29442  -17.37895   14.50168
       H     1.82405  -19.32603   19.49540
       O     1.26948  -19.22712   18.67907
      H1     1.83264  -19.63242   17.95779
       H     0.10472  -18.45967   14.07638
       O    -0.73302  -18.53793   14.51380
      H1    -0.48707  -18.92905   15.36578
       H     5.93263  -18.21401   12.69848
       O     5.74211  -18.04156   11.75951
      H1     4.84535  -17.65032   11.73620
       H     4.91598  -15.28146   13.84051
       O     4.43834  -15.83682   14.45585
      H1     3.67024  -16.13275   13.98316
       H     0.49454  -15.70884   10.77124
       O    -0.38079  -16.03502   11.05073
      H1    -0.84781  -15.28532   11.41288
       H     1.35134  -12.25503   17.37173
       O     0.61826  -11.89737   17.96161
      H1     0.99702  -11.89622   18.85561

