111
frame 4 | Written by MDAnalysis XYZWriter (release 2.4.3)
       H    12.96757    9.79220  -15.55962
       O    12.67641   10.76530  -15.60874
      H1    13.52643   11.17917  -15.48470
       H    13.45942   14.15047  -17.65583
       O    14.07389   14.76708  -18.08834
      H1    14.22685   15.54802  -17.48968
       H    16.48761   14.40716  -17.02828
       O    16.58722   14.44485  -16.06706
      H1    15.85216   13.77763  -15.84769
       H     9.70002   14.35068  -12.62363
       O     9.22519   14.75617  -13.42620
      H1     8.71694   14.06127  -13.87372
       H    18.67162   16.32831   -8.41406
       O    17.75427   16.23028   -8.23878
      H1    17.66418   16.39390   -7.27217
       H     7.82585   15.90481  -13.01345
       O     7.23843   16.67327  -12.98054
      H1     7.70701   17.51052  -13.15194
       H    16.07613   14.99660  -13.05535
       O    16.85153   15.39405  -12.56567
      H1    16.80377   14.85775  -11.78208
       H    14.11517   11.82008  -11.64800
       O    14.76207   12.41236  -12.04744
      H1    14.46969   13.29273  -11.74625
       H    16.66777   12.14488  -11.49660
       O    17.55816   11.99492  -11.82511
      H1    18.11483   12.15381  -11.03583
       H    15.84938    9.65559   -8.92576
       O    15.56804    9.74043   -9.82875
      H1    15.25441   10.63737   -9.82375
       H    15.45613   13.20774   -9.07307
       O    15.13501   12.40324   -8.67798
      H1    15.87008   12.05288   -8.16266
       H     9.45871   19.89784  -15.16888
       O     9.88189   19.30097  -14.52180
      H1    10.68329   19.80657  -14.22009
       H    13.21917   17.52983  -10.22734
       O    13.61959   16.67255  -10.00301
      H1    13.28089   15.98651  -10.63103
       H    11.40028   12.54797  -11.52699
       O    10.77150   13.12195  -11.96396
      H1    10.54577   12.57534  -12.74546
       H    12.23671   10.63797  -11.24138
       O    12.69918   11.38255  -10.91302
      H1    12.60863   11.25731   -9.94881
       H    17.98571   13.23318  -14.93893
       O    18.55116   13.41404  -14.17192
      H1    18.27064   12.81237  -13.45363
       H     9.96919   17.44697  -14.81616
       O    10.32230   16.61772  -15.12985
      H1     9.80293   15.91291  -14.63985
       H    11.78996   17.43204   -6.66254
       O    12.37688   17.54778   -7.42465
      H1    12.62499   16.64119   -7.55135
       H     9.34751   14.83876   -9.03129
       O     8.91426   15.68291   -8.79188
      H1     9.57679   16.31569   -9.11648
       H    16.47170   17.04583  -12.31577
       O    15.97742   17.86684  -12.01617
      H1    15.11012   17.56584  -11.65401
       H    12.83310    8.38387  -12.49617
       O    11.94496    8.72797  -12.23115
      H1    11.65142    8.04819  -11.53899
       H     8.91336   16.32152  -16.56581
       O     8.30537   16.18851  -17.37082
      H1     7.37328   16.00378  -17.05842
       H    15.55505   18.84181  -13.53568
       O    15.03426   19.05467  -14.35704
      H1    15.61611   19.36166  -15.09117
       H    15.47550   11.79871  -15.11092
       O    14.96739   12.56190  -14.88246
      H1    14.74438   12.46141  -14.00574
       H    16.17752   18.57515  -10.02727
       O    16.89162   18.85342   -9.38641
      H1    17.28469   18.00191   -9.00524
       H    12.72806   11.57123   -8.18375
       O    11.88748   11.09886   -8.23146
      H1    11.25921   11.85036   -8.33895
       H     9.40569   13.13938   -7.67974
       O    10.18794   13.26304   -8.17233
      H1    10.70630   13.86821   -7.61255
       H    13.85590   17.28500  -14.23241
       O    13.07373   16.84246  -13.87867
      H1    12.42913   16.55621  -14.56424
       H    11.18788   10.85262  -14.49576
       O    10.33021   11.20043  -14.04472
      H1    10.00782   10.50466  -13.45283
       H    15.03535   15.36180   -9.93828
       O    15.87946   14.82073   -9.85498
      H1    16.45831   15.30886   -9.23283
       H    13.41838   19.55168  -13.46393
       O    12.58807   19.30283  -13.05100
      H1    12.45724   18.38742  -13.24530
       H    14.69539   13.06505   -5.49405
       O    14.47285   13.63872   -6.24029
      H1    14.84857   13.22138   -7.02657
       H    11.15950   17.57831   -9.14246
       O    10.55400   17.73779   -9.86403
      H1    10.84387   18.54983  -10.24715
       H    12.21176   14.20722  -12.10830
       O    13.01177   14.79816  -12.08388
      H1    12.92512   15.55628  -12.71661
       H    15.01344   17.65199  -15.81448
       O    14.76875   17.12180  -16.62142
      H1    13.93796   17.47746  -17.00090
       H    10.82933   12.49109  -18.09707
       O    11.72838   12.04878  -18.14278
      H1    12.03153   11.97741  -17.23440
       H    12.81328   14.32218   -6.57265
       O    11.91663   14.70797   -6.60410
      H1    11.64938   14.91566   -5.68034

