111
frame 8 | Written by MDAnalysis XYZWriter (release 2.4.3)
       H     4.71136   15.73980  -11.10628
       O     3.80953   15.82011  -10.91166
      H1     3.34681   15.65471  -11.72756
       H     2.28231   14.88721   -1.85024
       O     1.64005   14.18550   -2.03150
      H1     0.74265   14.48950   -1.82225
       H     3.29457   13.36072   -5.84642
       O     4.22277   13.47048   -6.10565
      H1     4.21401   14.06751   -6.84125
       H     3.09178   18.30988   -3.51510
       O     2.85513   18.31505   -2.58417
      H1     1.96710   18.64599   -2.53073
       H     3.27662   19.37065   -0.01461
       O     2.88335   19.04767    0.80622
      H1     2.22684   18.31678    0.54764
       H    -1.22537   19.18715   -5.38890
       O    -0.31596   18.90591   -5.15957
      H1     0.09328   18.55591   -5.95131
       H     7.49458   12.31968   -5.62486
       O     8.27967   12.78606   -5.24378
      H1     7.97550   13.48989   -4.64300
       H     8.79145   18.79202  -13.77633
       O     8.47873   18.34513  -12.99787
      H1     9.08841   18.67660  -12.28800
       H    11.47671   17.57921   -7.52816
       O    11.65613   18.00087   -8.34236
      H1    12.34676   17.43819   -8.79290
       H     9.50172   16.54408   -8.72433
       O     9.20512   17.11226   -9.45530
      H1    10.03935   17.54510   -9.65286
       H     7.25670   19.03033   -5.20703
       O     6.97852   18.36473   -4.47787
      H1     6.90324   18.73575   -3.58012
       H    10.60758   18.31532   -2.38728
       O    11.18925   18.69491   -3.07013
      H1    12.07123   18.77430   -2.73079
       H     8.29120   16.02265  -10.87028
       O     7.69790   15.43194  -11.30155
      H1     8.24615   15.07798  -12.03229
       H     3.38645   16.73072   -2.14476
       O     3.68264   15.86514   -2.02954
      H1     4.08071   15.81186   -1.15575
       H     2.93201   17.74951  -11.16901
       O     2.25705   18.36091  -11.42363
      H1     2.57773   19.22735  -11.19682
       H     5.11847   16.12617   -8.08361
       O     5.22092   15.19705   -8.12648
      H1     6.12287   14.99060   -7.82819
       H     8.57324   14.80759    0.01792
       O     8.12312   14.04839   -0.39606
      H1     8.62075   13.25938   -0.16962
       H     6.66466   19.18481  -12.13228
       O     5.90181   19.72725  -11.93704
      H1     5.27691   19.47508  -12.62650
       H     6.35752   18.03474   -7.76873
       O     7.31732   18.09165   -7.55799
      H1     7.82274   17.89170   -8.37321
       H    11.41211   15.31308   -9.04932
       O    10.93461   15.07810   -8.26718
      H1    11.66870   15.11037   -7.66422
       H     6.78273   14.24830  -10.63780
       O     6.19354   13.60198  -10.10313
      H1     5.91724   14.17316   -9.37637
       H    12.38328   15.17556   -0.11598
       O    12.53737   14.59993   -0.89436
      H1    11.69204   14.69678   -1.43894
       H     6.44267   14.38218   -3.62842
       O     7.23014   14.96444   -3.95266
      H1     6.87397   15.75651   -4.40512
       H     9.35429   16.69983   -1.56186
       O     9.34807   17.57639   -1.22690
      H1     8.51371   18.00141   -1.56692
       H     9.92648   14.54615   -3.14519
       O    10.06720   14.50097   -2.18678
      H1     9.23881   14.24662   -1.74440
       H     4.38886   17.81910   -5.72000
       O     4.37766   17.61679   -4.76874
      H1     5.29272   17.78290   -4.52297
       H     6.14271   19.58891    2.08565
       O     6.53225   18.68276    2.08271
      H1     7.37116   18.75968    2.62344
       H     3.20283   18.01709   -8.07691
       O     4.06664   18.00858   -7.68166
      H1     4.37958   18.94053   -7.74255
       H    10.67487   14.16436   -5.44543
       O    11.02356   14.67108   -4.75146
      H1    10.95800   15.57122   -5.07761
       H     4.49554   14.47320   -2.92571
       O     4.73084   13.64354   -3.41918
      H1     4.60810   13.74046   -4.35936
       H     6.95340   18.62882   -0.30392
       O     6.86898   18.97976   -1.21333
      H1     7.24397   19.87543   -1.20364
       H    13.10069   18.94879   -5.99149
       O    13.49707   18.18390   -5.61678
      H1    13.49343   17.57376   -6.37509
       H     7.55830   16.20815   -6.90730
       O     7.95607   15.35764   -6.87280
      H1     7.86429   15.05381   -5.98342
       H    10.95520   17.92554   -4.62154
       O    10.52899   17.42923   -5.38864
      H1     9.68274   17.90719   -5.47931
       H     5.34254   14.66031    0.67801
       O     5.46870   14.45916   -0.25790
      H1     6.39392   14.16002   -0.23155
       H     0.92145   16.48246   -7.84284
       O     1.04479   17.44967   -7.86964
      H1     0.54858   17.68406   -8.70584
       H    14.10004   15.00342   -6.47550
       O    13.26192   15.45010   -6.60477
      H1    12.68136   15.17096   -5.88347

