111
frame 1 | Written by MDAnalysis XYZWriter (release 2.4.3)
       H   -16.96028   11.45851   -1.17929
       O   -16.15058   11.00078   -1.34912
      H1   -15.88675   11.13186   -2.27570
       H   -12.97995    7.57498   -5.56297
       O   -12.21220    7.88324   -5.13989
      H1   -12.38740    8.02146   -4.20261
       H    -6.96365    6.66656   -8.46610
       O    -7.52548    7.04962   -7.73680
      H1    -8.40263    6.69214   -7.75489
       H   -16.82003    9.36632   -5.84640
       O   -17.01940    9.84856   -5.03497
      H1   -17.18161    9.19076   -4.36844
       H   -10.20189    5.83703   -7.84641
       O    -9.97899    5.98202   -8.77262
      H1    -9.80838    5.11163   -9.09105
       H   -11.23438   12.30790  -10.63974
       O   -12.06322   12.08306  -10.11660
      H1   -12.65057   12.67916  -10.58174
       H   -11.10377    5.49376   -5.65595
       O   -10.17271    5.57685   -5.84222
      H1    -9.91128    6.34483   -5.30867
       H   -14.23098    6.29587   -1.97940
       O   -14.25615    6.67992   -2.88509
      H1   -14.07357    7.61156   -2.63862
       H    -7.99630    8.31371   -8.88985
       O    -8.33470    8.99396   -9.50904
      H1    -9.25752    9.10196   -9.22247
       H   -11.64795    9.32594   -2.57315
       O   -10.66886    9.30726   -2.62367
      H1   -10.36084    8.66637   -1.94520
       H   -13.76018    9.30493   -1.57160
       O   -13.48151    9.26201   -2.50099
      H1   -13.92244    9.97526   -3.01481
       H    -7.29458   11.10823   -4.89474
       O    -7.91003   11.78480   -5.22313
      H1    -8.34329   11.54862   -6.09275
       H    -9.24756   11.22732   -0.46187
       O   -10.14499   11.27078   -0.77868
      H1   -10.18071   10.69588   -1.55892
       H   -14.26043   12.08867   -5.77690
       O   -14.25850   12.68811   -6.52774
      H1   -13.34000   12.77931   -6.80400
       H   -13.11613   10.25244   -7.42984
       O   -13.31710    9.78574   -8.28654
      H1   -13.11026   10.42867   -9.00117
       H   -15.18662   14.64359   -3.28211
       O   -14.51227   14.00105   -3.47480
      H1   -14.17639   13.79855   -2.60484
       H   -16.17699    4.33056   -3.93048
       O   -16.38737    5.24976   -4.16268
      H1   -15.51581    5.61917   -4.14563
       H   -14.59353    7.68978   -9.71741
       O   -15.56128    7.85594   -9.62012
      H1   -15.96585    7.22363  -10.26954
       H   -13.92591    5.59008   -6.94485
       O   -13.58124    4.63674   -6.93376
      H1   -13.34198    4.38732   -7.84495
       H   -15.24699   12.24767   -3.71723
       O   -15.05901   11.28861   -3.80082
      H1   -15.83102   10.91402   -4.20056
       H   -12.91215    7.19151  -10.52718
       O   -12.83875    6.96700   -9.60463
      H1   -11.91641    6.78120   -9.48083
       H   -17.78716    7.70080   -7.74739
       O   -16.98725    7.95262   -7.26549
      H1   -16.37895    8.08607   -8.00003
       H   -10.42174   12.98815   -0.95854
       O   -10.45765   13.94870   -1.07494
      H1   -10.02568   14.12312   -1.93689
       H   -11.89397   15.36003   -4.85280
       O   -12.04260   15.41628   -3.88793
      H1   -12.82106   14.87766   -3.85556
       H   -13.51711    8.39128    0.44945
       O   -14.15436    9.06004    0.12357
      H1   -15.03193    8.67915    0.07721
       H   -15.04078   15.90148   -7.12325
       O   -15.45939   15.12678   -6.65630
      H1   -14.82397   14.41419   -6.44621
       H   -10.35787   10.63343   -7.45045
       O    -9.70585   11.38722   -7.49858
      H1   -10.31786   12.13159   -7.59876
       H   -11.69249   12.90803   -8.62698
       O   -11.68960   13.19478   -7.70358
      H1   -11.49765   14.12292   -7.61548
       H   -11.53521    9.12498   -8.03884
       O   -10.61865    8.95913   -7.85873
      H1   -10.66047    8.54949   -6.99957
       H   -11.50724    4.35031   -0.57574
       O   -11.32845    5.09737   -1.14756
      H1   -12.06893    5.35127   -1.62927
       H   -15.33312   10.85451   -9.58068
       O   -15.86930   11.31261   -8.93536
      H1   -15.24320   11.31198   -8.17972
       H   -11.45697   11.08406   -5.37526
       O   -12.30553   10.63180   -5.45889
      H1   -12.25833    9.68415   -5.19656
       H   -10.49545    6.60499   -0.60639
       O   -10.37258    7.58342   -0.45963
      H1    -9.68986    7.52950    0.25394
       H    -8.66090    6.78155   -3.48795
       O    -8.72988    7.37980   -4.27535
      H1    -9.06285    8.24601   -3.97121
       H    -7.34800    7.75945   -5.18124
       O    -6.45807    8.14138   -5.11104
      H1    -6.23069    8.43356   -6.02609
       H    -9.90955   14.79545   -3.79249
       O    -9.02117   14.70340   -3.36548
      H1    -8.69444   13.83444   -3.65086
       H   -14.22214    7.59260   -7.57625
       O   -14.41484    7.09379   -6.74184
      H1   -15.37800    7.09775   -6.64598

