111
frame 6 | Written by MDAnalysis XYZWriter (release 2.4.3)
       H     8.22972   -0.32514   -0.29798
       O     8.33978   -1.23838   -0.46723
      H1     9.02579   -1.67213    0.08399
       H     6.33971   -0.14162    2.44733
       O     6.56016   -0.97884    2.84241
      H1     6.40915   -1.63053    2.09704
       H     1.94593    3.71241    2.02912
       O     1.66143    4.32071    2.74876
      H1     1.56670    5.13361    2.31578
       H     7.07646    4.13386    3.89587
       O     7.23217    3.16579    3.98391
      H1     6.87870    3.01303    4.87961
       H     6.83027   -2.09924    0.24279
       O     6.24829   -2.60671    0.78447
      H1     5.47776   -2.83636    0.22519
       H     2.75337    5.24448    0.01467
       O     3.06630    4.35615   -0.15558
      H1     2.44702    3.67654   -0.19663
       H     1.12054    1.38634   -0.91970
       O     1.81131    1.89637   -0.50080
      H1     2.50928    1.24378   -0.36210
       H    10.97225    3.93499   -1.94668
       O    11.47976    4.73662   -2.05610
      H1    12.41298    4.62082   -1.82405
       H     5.91709    5.29870    5.16904
       O     5.38364    4.87664    5.87484
      H1     5.91595    5.01585    6.69247
       H     9.73567   -1.68226    4.14900
       O     9.46375   -0.81115    3.78751
      H1     8.52096   -0.86714    3.49510
       H     6.18096    2.90194    0.43378
       O     6.56062    3.55619   -0.19195
      H1     5.79880    3.98619   -0.51441
       H     4.58915    4.46554   -3.38968
       O     4.41543    4.18258   -4.28801
      H1     3.59010    3.67595   -4.22584
       H     8.76147    9.69125    0.94971
       O     9.57298    9.78388    0.38454
      H1     9.57579    8.92410   -0.08182
       H     5.81202    0.16820   -1.98485
       O     5.12048   -0.36981   -2.30401
      H1     4.41474   -0.32790   -1.62785
       H     1.75375    4.35083   -3.09573
       O     1.76267    3.37801   -2.91124
      H1     2.22328    3.31784   -2.07843
       H     2.45703    7.10593   -0.61975
       O     2.94808    7.15246   -1.47894
      H1     2.37764    6.71953   -2.17877
       H    10.89574    6.36703    1.62496
       O    11.02583    5.45776    1.39496
      H1    11.58325    5.46877    0.62909
       H     7.86493    6.04905    4.09918
       O     6.96661    5.92898    3.77803
      H1     6.99419    6.01295    2.76970
       H     4.85402    8.36714    0.17494
       O     5.78253    8.45365    0.18262
      H1     5.99138    9.37532    0.00762
       H     8.54539    7.55074   -1.51126
       O     9.28119    7.29572   -0.96121
      H1     8.91284    6.59934   -0.36810
       H     7.30283    1.48011    1.43917
       O     6.44136    1.55626    1.86338
      H1     6.64065    2.14606    2.56278
       H    10.70590    1.61129   -1.94423
       O    10.15628    2.38935   -1.90261
      H1     9.44843    2.13255   -2.46506
       H    12.25906    2.04458    1.05674
       O    11.58541    2.31309    1.67390
      H1    11.75040    3.24680    1.82662
       H     4.19484    2.01071   -4.13428
       O     4.39932    1.12224   -4.51455
      H1     4.61592    0.62274   -3.70560
       H     6.73292    3.85218   -6.01634
       O     6.88617    4.57646   -6.60764
      H1     7.81204    4.56601   -6.86504
       H     7.41110    1.57359   -2.77333
       O     7.18533    1.53213   -1.81594
      H1     6.92325    2.46585   -1.54895
       H     4.48232    5.69997   -1.28629
       O     5.26807    5.46035   -1.87127
      H1     5.77855    6.25542   -1.94146
       H     6.21754    8.21589   -1.70154
       O     6.72826    7.83592   -2.44962
      H1     6.43780    8.09233   -3.30933
       H     1.21367    1.64155    1.13948
       O     1.08390    1.31173    2.05366
      H1     1.61224    0.54850    2.13489
       H    10.30775   -0.62068   -3.66039
       O     9.37329   -0.62885   -3.40577
      H1     9.37397   -1.00716   -2.54459
       H     7.88239    2.07177   -5.24337
       O     7.81262    2.51448   -4.39449
      H1     8.40210    3.22318   -4.39464
       H     4.80497    0.69920    0.70714
       O     3.98582    0.28311    0.45886
      H1     3.62850   -0.10722    1.28325
       H     4.12969    8.12866    4.68567
       O     4.69393    8.12652    3.89065
      H1     5.40075    7.44114    4.04742
       H     8.10505    4.81518    0.27167
       O     8.36898    5.56430    0.82131
      H1     9.22316    5.36252    1.21838
       H    10.46156    2.05043    4.36319
       O    10.00281    2.90021    4.54024
      H1     9.15132    2.81113    4.14952
       H     8.99925    5.59995   -3.17370
       O     8.80775    5.93725   -4.07337
      H1     7.92877    6.35181   -4.02219
       H     8.94664    1.94569   -0.25623
       O     8.86910    1.71274    0.67400
      H1     9.69727    2.00764    0.99605

