111
frame 4 | Written by MDAnalysis XYZWriter (release 2.4.3)
       H     6.43184   -8.19608  -12.51589
       O     6.10103   -9.01277  -12.24093
      H1     6.90208   -9.47939  -11.91278
       H     9.23594  -15.57535  -17.65323
       O    10.08855  -15.55184  -17.17219
      H1    10.80063  -15.62717  -17.76781
       H     5.21223  -16.05260  -15.85183
       O     5.53829  -15.46371  -15.15639
      H1     6.30487  -15.85150  -14.70920
       H     6.77957  -13.51183  -12.15187
       O     5.98438  -13.15903  -12.59432
      H1     6.17927  -12.22555  -12.49371
       H     3.46580  -17.20339  -16.70661
       O     4.21722  -17.83538  -16.73787
      H1     4.39384  -18.21872  -15.82801
       H     5.10886  -12.18151  -14.93450
       O     5.28947  -12.80671  -15.64296
      H1     5.46200  -13.58586  -15.11643
       H     7.17940  -17.74514   -9.75363
       O     7.52775  -16.88860  -10.13383
      H1     7.50728  -16.98439  -11.11907
       H     9.93088  -12.88470  -18.32920
       O     9.74620  -12.04604  -18.72335
      H1     8.77989  -12.04296  -18.77587
       H     8.57345  -10.34426  -13.47489
       O     9.00611  -10.05890  -14.30945
      H1     8.36710  -10.05811  -14.96753
       H     5.72525  -12.67632   -9.05894
       O     6.58044  -12.66306   -8.57635
      H1     6.43545  -11.97267   -7.84410
       H     1.05203   -9.94590  -16.22889
       O     0.57638   -9.10389  -16.13204
      H1     1.26770   -8.56563  -15.79733
       H     0.48562  -15.07899  -13.83383
       O     0.85135  -15.60033  -14.56415
      H1     0.28561  -16.39711  -14.55203
       H     1.54178  -15.48673  -16.49443
       O     2.08791  -15.61252  -17.29366
      H1     2.78648  -14.93120  -17.40958
       H     3.10840  -19.90453  -12.82201
       O     2.85530  -19.08068  -12.41784
      H1     3.16496  -18.42833  -13.07206
       H     2.77266  -12.36354   -8.59077
       O     3.59708  -12.16712   -9.14785
      H1     3.32717  -12.60004  -10.01163
       H     1.84548  -12.30361  -15.69600
       O     1.43271  -11.76120  -16.32290
      H1     0.61290  -12.26255  -16.46535
       H     8.10596  -17.75363  -16.19398
       O     8.03825  -18.65800  -15.86189
      H1     8.09501  -19.08903  -16.68565
       H     0.34206  -13.98948  -11.44211
       O     0.05374  -14.24514  -12.35471
      H1    -0.34884  -13.51302  -12.83957
       H     4.14111  -16.06344  -14.36801
       O     3.42790  -16.55857  -13.87241
      H1     2.55105  -16.13510  -14.10413
       H     4.43875   -8.40681  -16.44139
       O     5.06836   -8.17677  -17.10279
      H1     5.23803   -7.18673  -17.19608
       H     4.92397   -8.77155  -18.69643
       O     4.55633   -8.98604  -19.56233
      H1     5.02920   -9.73957  -19.86783
       H     3.52561  -12.80626  -18.59927
       O     4.03930  -13.47265  -18.07604
      H1     4.52706  -13.10032  -17.36101
       H     4.29511  -16.30871  -12.19746
       O     4.50046  -15.83800  -11.31946
      H1     5.17183  -15.17098  -11.58820
       H     2.32626  -11.90233  -18.07736
       O     2.29214  -11.83935  -19.06279
      H1     2.08032  -10.89105  -19.31570
       H     5.07486  -10.02132  -13.42215
       O     4.55924  -10.61440  -13.98762
      H1     3.88712  -10.96650  -13.35148
       H     6.75433   -8.86640  -16.71014
       O     7.61437   -9.31663  -16.57036
      H1     8.31168   -8.87675  -17.04682
       H    10.56681  -14.64423  -14.18481
       O    10.22709  -15.51564  -14.51198
      H1    10.20759  -15.41231  -15.50635
       H     6.43215  -19.71033  -18.65951
       O     5.62874  -19.23469  -18.89976
      H1     5.30744  -18.67896  -18.16549
       H     3.73522   -7.76589  -14.67790
       O     3.34682   -8.56761  -15.11449
      H1     3.75299   -9.28185  -14.63015
       H     7.34277  -10.55958  -17.63848
       O     7.03653  -11.40895  -18.08189
      H1     6.56088  -11.79286  -17.36066
       H     2.23540  -14.52651  -10.50694
       O     1.38897  -14.11534  -10.22304
      H1     1.10659  -14.58830   -9.38060
       H     9.22897  -13.46315  -12.41221
       O     8.62074  -13.35641  -11.67105
      H1     9.12252  -13.73136  -10.91116
       H    10.40900  -10.85000  -14.98232
       O    10.96920  -11.42043  -15.51869
      H1    10.75522  -11.13966  -16.38533
       H     8.93732  -10.13732  -11.70079
       O     8.26018  -10.75794  -11.96413
      H1     8.52651  -11.64789  -11.74583
       H     8.32788  -17.50542  -18.59873
       O     7.85500  -16.76960  -18.19746
      H1     7.05244  -16.72237  -18.68468
       H     2.06457  -13.05577  -12.24717
       O     2.76399  -12.45486  -11.92389
      H1     2.45392  -11.50569  -12.02714
       H     8.62137  -16.13008  -13.83873
       O     7.86725  -16.67237  -13.67635
      H1     8.26258  -17.53896  -13.44974

