111
frame 9 | Written by MDAnalysis XYZWriter (release 2.4.3)
       H    -9.57654   19.76010   -6.86814
       O    -9.36325   19.06326   -6.24295
      H1   -10.07724   19.12218   -5.59167
       H   -11.82931   15.74685   -2.08546
       O   -12.28368   15.87717   -1.24216
      H1   -11.85642   15.40267   -0.53815
       H    -8.70842   11.37554  -12.46960
       O    -8.87100   12.32117  -12.77498
      H1    -9.28328   12.76465  -11.99319
       H    -9.67014   11.43823   -7.80565
       O   -10.14401   10.59036   -7.65910
      H1   -10.25682   10.48182   -6.71462
       H   -11.54572   19.95204   -4.37910
       O   -11.13048   19.10257   -4.38623
      H1   -11.77250   18.46436   -4.78352
       H   -11.28644   18.40369  -10.31396
       O   -11.30399   18.53242  -11.28015
      H1   -10.54029   18.02913  -11.54154
       H   -13.16376   15.39611   -3.40652
       O   -14.01388   14.94127   -3.54459
      H1   -14.72595   15.53264   -3.25997
       H    -8.57815   12.28994   -4.03077
       O    -8.54752   13.28907   -4.00151
      H1    -7.96582   13.46366   -4.72333
       H    -6.25197   18.09171   -3.99263
       O    -7.06828   18.50142   -3.81232
      H1    -6.90710   19.05916   -3.07838
       H   -14.00313   14.19271   -5.05603
       O   -14.32495   13.76005   -5.88072
      H1   -13.74828   13.94016   -6.60824
       H   -11.27739   14.81733   -4.33530
       O   -11.16809   15.72294   -3.90111
      H1   -10.24765   15.96960   -4.14135
       H    -6.43381   15.21977  -11.91713
       O    -6.68489   15.47285  -11.01175
      H1    -5.84893   15.60747  -10.53205
       H    -9.10090   17.02799  -13.04269
       O    -8.96846   17.19878  -12.08929
      H1    -8.44967   16.42333  -11.83397
       H   -10.43967   17.09541   -8.29334
       O   -10.98557   17.80966   -8.63752
      H1   -11.08551   18.36208   -7.89191
       H    -6.18465   11.51936   -8.48580
       O    -5.31499   11.91513   -8.11902
      H1    -4.82846   12.28856   -8.87132
       H    -8.73202   17.53829   -6.77537
       O    -8.82568   16.55156   -6.96579
      H1    -7.91205   16.40927   -7.11967
       H    -7.05557   15.74873   -2.90012
       O    -6.44035   15.48841   -2.20134
      H1    -6.48220   14.51496   -2.13250
       H    -3.46036   16.81478   -4.29360
       O    -4.32046   17.33695   -4.27223
      H1    -4.44351   17.45057   -3.30674
       H   -14.26724   16.86206   -9.75162
       O   -14.37483   15.92323   -9.62919
      H1   -13.53647   15.66301   -9.96385
       H    -4.05629   11.63035   -3.38792
       O    -4.53441   12.44924   -3.60458
      H1    -4.67932   12.47084   -4.52261
       H    -4.96297   15.66665   -8.87318
       O    -4.11816   15.63848   -9.47954
      H1    -3.89811   16.58780   -9.47088
       H    -8.93592   14.07504   -2.10188
       O    -9.54460   14.14109   -1.34950
      H1    -9.93424   13.29318   -1.25832
       H    -8.66189   16.47312   -5.12734
       O    -8.57991   16.30104   -4.16590
      H1    -8.20420   17.14813   -3.88540
       H    -6.28769   15.01384   -6.97712
       O    -6.08923   15.93781   -7.32788
      H1    -5.29775   16.24584   -6.93618
       H   -13.36341   16.97836   -6.11329
       O   -12.41570   16.99692   -6.04607
      H1   -12.15825   16.37135   -5.35583
       H    -9.62500   13.45473   -8.41101
       O    -9.39930   13.18376   -7.54138
      H1   -10.10619   13.33572   -6.88257
       H   -12.87671   15.42228   -8.23311
       O   -12.24921   14.95638   -7.70883
      H1   -12.04517   15.69956   -7.06504
       H    -3.71499   17.19079   -1.22768
       O    -4.53405   17.62622   -1.54706
      H1    -5.27685   17.03774   -1.41478
       H   -15.31251   17.72149   -7.14259
       O   -15.07061   16.85020   -6.77696
      H1   -15.62287   16.33209   -7.30387
       H    -6.15491   12.95392   -6.89768
       O    -6.85214   13.50213   -6.45076
      H1    -7.70047   13.42315   -6.95440
       H    -3.73486   19.60249   -6.15074
       O    -3.85142   18.69201   -6.48865
      H1    -4.06522   18.27021   -5.64559
       H    -1.85085   14.24898   -5.61603
       O    -2.18913   14.81867   -6.31958
      H1    -1.40893   15.40358   -6.53692
       H   -12.47151   15.14689  -11.64984
       O   -12.06446   15.36438  -10.83654
      H1   -11.78634   16.31626  -11.07363
       H   -10.53433   14.08319  -10.31353
       O    -9.63989   13.70605  -10.32785
      H1    -9.04706   14.42231  -10.48915
       H    -3.66971   18.97497   -9.71304
       O    -3.21373   18.32764   -9.14979
      H1    -3.59694   18.48705   -8.25089
       H    -8.11455   10.18890   -3.21560
       O    -8.22064   10.73030   -4.01486
      H1    -9.04093   10.40597   -4.43365
       H   -11.50946   12.57937   -4.44595
       O   -10.99768   13.22719   -4.99154
      H1   -10.10994   13.28902   -4.57235

