111
frame 6 | Written by MDAnalysis XYZWriter (release 2.4.3)
       H   -16.03205   -6.31646   10.17690
       O   -16.66696   -6.76751    9.59317
      H1   -17.35489   -6.11072    9.44010
       H   -14.31149  -12.07863   10.11129
       O   -14.13444  -12.53047    9.33502
      H1   -14.48881  -11.98846    8.61331
       H   -18.04428   -9.92236   11.50055
       O   -17.84408  -10.85267   11.42797
      H1   -18.33722  -11.32259   12.12830
       H   -11.80483   -7.95168   16.98574
       O   -12.72833   -8.14949   17.05842
      H1   -12.94744   -7.78359   17.92086
       H   -10.29138  -10.31867   16.74607
       O   -11.02052  -10.37764   17.40631
      H1   -11.28044   -9.49208   17.56664
       H   -16.84513   -4.59564   13.66540
       O   -16.01418   -4.06392   13.61411
      H1   -15.88141   -3.60982   14.44235
       H   -13.83418   -2.20495   14.79690
       O   -13.17252   -1.52800   14.44634
      H1   -12.43012   -2.01330   14.08748
       H   -13.43300  -10.73377   15.19006
       O   -12.91624  -11.39216   15.72401
      H1   -12.32389  -10.92608   16.34185
       H   -13.46737   -8.10664    8.62626
       O   -14.01490   -8.67570    9.17210
      H1   -14.84212   -8.24797    9.27349
       H   -10.33238   -2.96128   16.30286
       O   -11.11845   -3.41133   16.81957
      H1   -11.68852   -3.79385   16.16952
       H    -9.49990   -8.81021   15.95478
       O    -9.14060   -9.62522   15.69796
      H1    -8.95251   -9.56854   14.75830
       H   -16.14321   -2.41902   12.58836
       O   -16.40644   -1.78773   11.89528
      H1   -17.32923   -1.93989   11.68223
       H   -18.13157   -7.80643   10.44114
       O   -18.64684   -8.02478   11.20894
      H1   -19.57884   -7.86764   11.05872
       H   -11.18911  -10.54105   10.74441
       O   -10.22242  -10.82516   10.85006
      H1   -10.22630  -11.76721   10.73736
       H   -18.56717  -10.29336   14.81908
       O   -17.97424  -10.11668   15.60103
      H1   -17.11861   -9.81951   15.19332
       H   -10.79640   -4.83412    8.90267
       O   -10.18422   -5.56740    8.95638
      H1    -9.76738   -5.45155    8.09788
       H   -13.56443   -4.98397   10.55962
       O   -14.47590   -4.88278   10.17644
      H1   -14.40131   -4.81400    9.21157
       H   -17.50570   -6.47896   14.42303
       O   -17.95279   -6.27177   13.55197
      H1   -17.74283   -7.01723   12.93870
       H   -11.56847  -12.02077   14.82212
       O   -10.86810  -12.25450   14.23949
      H1   -10.82895  -11.48721   13.72858
       H   -15.35471  -12.48848   12.53143
       O   -15.25570  -11.71464   12.01153
      H1   -16.06794  -11.51324   11.49556
       H   -13.27985   -8.46514   12.38367
       O   -13.82073   -7.90883   12.89996
      H1   -13.21181   -7.17625   13.09680
       H   -13.29852  -10.38155   11.71735
       O   -12.67924   -9.89140   11.12471
      H1   -13.08764   -9.63110   10.27639
       H   -14.26989   -3.02892   10.43064
       O   -14.22204   -2.05294   10.21843
      H1   -15.01587   -1.70057   10.66244
       H    -8.96406   -6.65065   11.35016
       O    -9.27593   -6.60206   12.30016
      H1    -8.71567   -5.89062   12.68465
       H   -11.91630   -6.48496    8.08695
       O   -12.69909   -6.75984    7.60796
      H1   -12.44027   -6.95136    6.64673
       H   -15.04479   -8.43034   18.16792
       O   -15.83035   -8.92688   17.90888
      H1   -15.59807   -9.72838   17.45194
       H   -13.56310   -6.64812   16.55138
       O   -14.08932   -5.84275   16.42027
      H1   -15.03470   -6.14475   16.28331
       H   -16.51491   -7.58058   16.50353
       O   -16.69138   -6.73835   16.09556
      H1   -17.29411   -6.23334   16.62788
       H   -12.30152   -3.79797   13.49484
       O   -11.44493   -3.32536   13.43153
      H1   -11.40391   -3.10075   12.49665
       H   -15.09258   -2.96521   16.89397
       O   -15.42869   -2.45730   16.16389
      H1   -16.31168   -2.11436   16.46811
       H   -10.97187   -5.71179   11.30522
       O   -11.93025   -5.59877   11.19312
      H1   -12.18184   -5.27665   12.04753
       H    -9.22616   -8.32599   12.77865
       O    -9.35348   -9.26467   13.03553
      H1    -9.69367   -9.67906   12.18195
       H   -10.08622   -7.39671   18.15362
       O   -10.08051   -7.58492   17.22043
      H1    -9.83038   -6.74205   16.80839
       H   -14.21381   -4.44902   17.87480
       O   -14.60297   -3.80096   18.42793
      H1   -13.85218   -3.26064   18.70371
       H   -13.82324   -5.47844   14.78120
       O   -13.56820   -5.18828   13.85951
      H1   -14.41757   -4.98413   13.40297
       H   -11.22473   -2.80834    9.55987
       O   -11.76115   -3.34740    8.97162
      H1   -11.22057   -3.34722    8.13445
       H   -15.54870  -10.22931   13.46699
       O   -15.27975   -9.79065   14.27320
      H1   -14.93604   -9.00490   13.83305

