111
frame 8 | Written by MDAnalysis XYZWriter (release 2.4.3)
       H    -3.66345    4.37638   12.45404
       O    -3.08795    3.76184   11.98169
      H1    -3.33645    2.91373   12.36366
       H    -7.76121    1.57997   11.28663
       O    -7.00808    1.09820   11.56825
      H1    -6.55517    1.71369   12.13991
       H   -10.81718    6.02977   13.98159
       O   -11.12446    5.72311   14.92402
      H1   -11.81286    6.33228   15.21377
       H    -8.43741    7.59424    6.93277
       O    -7.62802    7.20826    6.75331
      H1    -7.80722    6.26761    6.53142
       H   -13.05699    9.60741    7.02483
       O   -12.32158    9.37062    7.59927
      H1   -12.40688    8.48397    7.86768
       H   -11.86390    6.29589    8.85633
       O   -12.12189    5.87860    8.02858
      H1   -11.33622    6.03299    7.47947
       H    -7.34325    0.42627    6.33066
       O    -6.72437    1.09715    6.08850
      H1    -5.80895    0.67678    6.05941
       H    -9.79043    6.14480    4.35709
       O    -9.29827    5.99298    3.50233
      H1    -8.40718    5.69512    3.76075
       H    -9.96110    3.75219    6.59096
       O    -9.28661    3.13308    6.76290
      H1    -8.71639    3.62287    7.34880
       H    -1.25367    5.20203    9.82109
       O    -1.51879    4.47364    9.32739
      H1    -2.43653    4.25592    9.44949
       H    -8.40901    9.07681   10.36371
       O    -8.44088    9.92715   10.85028
      H1    -8.28006    9.66936   11.76342
       H   -11.11802    9.65128    6.06957
       O   -10.35455    9.26519    5.63923
      H1   -10.48316    9.52899    4.71217
       H    -8.79355    3.25582   10.04038
       O    -9.15389    2.52211   10.60297
      H1    -9.98445    2.93753   10.93648
       H    -5.16597    8.24819   11.40409
       O    -5.42609    7.48417   10.82702
      H1    -5.55867    7.83494    9.93293
       H    -9.13252    5.45304   13.24613
       O    -9.71395    5.86714   12.56983
      H1   -10.27467    5.12590   12.21788
       H   -10.60950    7.55348    5.57460
       O   -10.75443    6.51983    5.69152
      H1   -11.69776    6.25571    5.58303
       H    -7.80301    3.64571    5.83755
       O    -7.47564    4.39283    5.35931
      H1    -6.49208    4.20038    5.19218
       H    -7.98467    5.78209    9.03242
       O    -8.14399    4.93277    8.59181
      H1    -7.22140    4.82438    8.21889
       H    -9.95808    1.53531    6.71999
       O   -10.22439    0.65875    6.38552
      H1   -11.11533    0.38541    6.73826
       H    -5.12364    7.67541    5.10835
       O    -5.98306    7.90557    4.74782
      H1    -6.58458    7.72274    5.45207
       H    -5.02577    4.95032    8.60537
       O    -5.39072    5.62784    8.00235
      H1    -4.91716    5.47989    7.19020
       H   -12.43822    3.43698   11.10150
       O   -11.65042    3.60910   11.63739
      H1   -12.02792    3.84999   12.47019
       H    -4.89954    6.03737   12.17470
       O    -4.91952    5.36119   12.81391
      H1    -4.33611    5.78388   13.46179
       H    -4.79828    7.98696    8.32681
       O    -5.53986    8.52315    8.32417
      H1    -6.22246    7.92241    8.01806
       H    -7.84135    8.65334   14.16885
       O    -8.28220    9.37663   13.70834
      H1    -7.66194   10.11659   13.61545
       H    -8.94386    5.06205   15.27005
       O    -8.20476    4.82938   14.69851
      H1    -7.59630    5.55795   14.66621
       H    -8.68210    6.45906   11.10126
       O    -8.20039    6.95616   10.44419
      H1    -7.30674    7.05291   10.70395
       H   -12.18409    8.71997   10.67283
       O   -11.71931    8.05375   10.09781
      H1   -10.86336    7.93736   10.58545
       H   -10.51592   -0.09570    9.75857
       O    -9.57597    0.06062    9.52642
      H1    -9.43817    1.01583    9.83203
       H    -9.54360   11.63626    8.13056
       O    -9.11358   11.67716    7.21417
      H1    -9.41202   10.85663    6.86133
       H    -4.95004    4.64524    3.67346
       O    -4.78878    4.13453    4.51030
      H1    -4.65048    3.20131    4.25223
       H    -6.39727    1.38546    7.83514
       O    -6.21242    1.49879    8.79566
      H1    -6.98188    1.05779    9.26294
       H    -9.33053   11.31618   10.21260
       O    -9.95545   11.98148    9.79371
      H1   -10.80752   11.60227    9.93979
       H    -6.28930   10.31217    7.59286
       O    -6.53411   11.21083    7.47669
      H1    -7.50752   11.13157    7.23727
       H    -4.20760    3.67501   10.62636
       O    -4.58607    3.66523    9.75559
      H1    -5.28731    2.98740    9.78937
       H   -12.78010    4.39424    7.54424
       O   -13.14373    3.60937    7.09480
      H1   -13.08880    2.92167    7.81090
       H    -3.00262    6.69595    6.24314
       O    -3.57446    7.25060    5.71353
      H1    -3.03276    8.12904    5.72594

