111
frame 11 | Written by MDAnalysis XYZWriter (release 2.4.3)
       H     8.31442    5.45583  -13.97866
       O     7.74558    5.81166  -13.24527
      H1     8.21361    6.64721  -13.20613
       H     4.27192    6.68483  -11.71766
       O     4.20622    5.75143  -11.63535
      H1     4.43694    5.49697  -10.69776
       H     7.91904    1.38251  -16.99761
       O     7.06597    1.24888  -17.42375
      H1     7.23235    0.48238  -17.91800
       H     0.78684    2.86725  -13.12992
       O     0.31603    3.66580  -13.06614
      H1    -0.56642    3.45658  -13.37047
       H    -0.18031    5.15338  -17.20272
       O     0.64341    5.33848  -17.72006
      H1     0.85857    6.26646  -17.34270
       H     5.04540    4.45491   -8.57329
       O     4.37696    5.11772   -8.86054
      H1     3.60231    4.80088   -8.33830
       H     4.77951   -0.13271   -9.15813
       O     5.44775    0.14037   -9.75320
      H1     5.03967    0.81428  -10.39302
       H     4.82886    2.78458  -14.27699
       O     4.31024    1.95216  -14.24732
      H1     4.90021    1.20388  -14.42500
       H     8.36073    4.87762  -15.96929
       O     9.18107    5.25139  -15.68138
      H1     9.14782    6.23037  -15.64861
       H     9.85314    0.97822  -15.98314
       O     9.11090    1.48422  -15.67987
      H1     9.09480    1.36436  -14.73990
       H     2.48863   -0.59531  -13.60242
       O     2.15725   -0.46052  -14.48438
      H1     2.56058    0.33063  -14.81042
       H     4.48693    5.21739  -14.33746
       O     5.33578    4.70321  -14.42445
      H1     5.97508    5.15513  -13.84469
       H     6.54026   -3.28060  -13.02824
       O     6.54716   -2.57319  -13.69647
      H1     5.67956   -2.64168  -14.22743
       H     2.71643   -1.37712  -10.90240
       O     3.14396   -2.06779  -11.38383
      H1     3.19245   -2.87872  -10.91181
       H     3.34424    6.21677  -15.41218
       O     2.82280    5.93786  -14.60556
      H1     2.37236    5.09061  -14.86684
       H     2.12761    5.30353  -11.49618
       O     1.31923    5.31924  -10.98772
      H1     0.63289    4.84988  -11.46093
       H     9.10794    2.94713  -10.66712
       O     9.13656    3.54880  -11.44492
      H1     8.43842    4.15381  -11.38178
       H     0.80702    1.49838   -9.67247
       O     1.56456    1.10446  -10.13793
      H1     2.27290    1.76777  -10.22016
       H     6.64786   -0.74675  -15.04662
       O     5.96391   -0.21009  -15.46895
      H1     6.32067    0.54334  -15.95480
       H     4.40478    2.05435  -12.34841
       O     4.18257    2.13627  -11.39904
      H1     4.11898    3.04924  -11.20430
       H     6.24500    4.77499  -15.86571
       O     6.72617    4.34264  -16.57426
      H1     6.43556    3.43014  -16.48821
       H     7.11104    0.86187   -9.37076
       O     7.84624    1.49159   -9.37249
      H1     7.41475    2.23769   -8.84361
       H     0.14285    0.19991  -18.67880
       O     0.98410    0.26599  -18.22899
      H1     0.91619   -0.22604  -17.44136
       H    -1.81296    1.64553  -12.21782
       O    -1.57302    1.10760  -13.00678
      H1    -0.97803    0.42498  -12.75937
       H    -1.80482    3.19703  -16.16073
       O    -1.35334    4.02305  -15.92569
      H1    -0.46924    3.71211  -15.69842
       H     0.73692   -0.33999  -11.28856
       O     0.26705   -0.74625  -12.06130
      H1    -0.17532   -1.61948  -11.74870
       H     8.37880    0.90778  -12.87547
       O     7.79550    1.59787  -13.16057
      H1     8.22692    2.44553  -12.85510
       H    10.28178   -0.05924  -11.40981
       O     9.66696   -0.18849  -12.20057
      H1     8.83610   -0.55345  -11.85087
       H     0.29414    1.45290  -15.27708
       O    -0.68471    1.27394  -15.40207
      H1    -1.07269    1.22650  -14.50173
       H     1.26714   -1.24356  -15.68111
       O     0.97011   -1.96405  -16.24394
      H1     0.09450   -2.26266  -15.95126
       H     3.90022    4.41097  -17.75998
       O     3.09481    3.93074  -18.00417
      H1     2.34464    4.58808  -17.88587
       H     7.10346    5.48117  -19.15456
       O     6.37923    5.82364  -18.60212
      H1     6.62919    5.33828  -17.81269
       H     5.37596   -2.84678  -18.66712
       O     5.81856   -2.82538  -17.81467
      H1     5.53565   -3.64129  -17.38789
       H     2.73788    2.31201  -15.35304
       O     1.80672    2.19280  -15.61049
      H1     1.78434    2.23969  -16.55862
       H     6.64576   -0.78638  -10.77058
       O     7.29474   -1.30862  -11.22550
      H1     6.96514   -1.53490  -12.07173
       H     3.00611   -2.19226  -14.34530
       O     3.60526   -2.80621  -13.93503
      H1     3.62675   -2.45100  -12.99150
       H     4.13920    7.08471  -17.96488
       O     3.98817    6.94771  -17.01211
      H1     4.89801    6.89286  -16.79743

