111
frame 1 | Written by MDAnalysis XYZWriter (release 2.4.3)
       H   -17.70786   12.14540  -11.14600
       O   -17.93018   11.31228  -11.55376
      H1   -18.32108   10.69475  -10.88984
       H   -11.17708   11.24616  -14.31750
       O   -12.02161   11.56996  -14.66063
      H1   -12.38280   12.11080  -13.93580
       H   -11.23438   12.30790  -10.63974
       O   -12.06322   12.08306  -10.11660
      H1   -12.65057   12.67916  -10.58174
       H   -13.98098   13.36259  -13.48998
       O   -13.90215   12.65773  -12.84994
      H1   -14.54122   12.01123  -13.11587
       H   -14.93530   15.52470  -13.09064
       O   -15.05556   15.77381  -12.14985
      H1   -15.52721   15.04719  -11.75870
       H   -10.33567   15.81366   -9.68087
       O   -10.98847   15.44371  -10.31161
      H1   -10.97871   16.00755  -11.06756
       H   -18.53219   17.43588  -12.48200
       O   -18.56183   17.08703  -13.38600
      H1   -18.14762   17.71191  -13.99716
       H   -14.92050   19.73330  -16.86864
       O   -15.15220   18.82448  -16.73461
      H1   -15.18735   18.58361  -17.69059
       H   -14.26043   12.08867   -5.77690
       O   -14.25850   12.68811   -6.52774
      H1   -13.34000   12.77931   -6.80400
       H   -13.11613   10.25244   -7.42984
       O   -13.31710    9.78574   -8.28654
      H1   -13.11026   10.42867   -9.00117
       H   -10.38581   10.32048  -12.51132
       O   -10.99013    9.72573  -12.05352
      H1   -11.61095   10.31896  -11.71310
       H   -10.91125   15.77435  -13.78703
       O   -11.46686   15.42809  -14.50085
      H1   -10.84086   15.00265  -15.05876
       H   -10.80179   17.50142  -13.22702
       O   -10.43358   17.06164  -12.47501
      H1    -9.50489   17.28374  -12.47609
       H   -10.89673   16.51309   -6.46030
       O   -11.59002   15.92608   -6.80585
      H1   -12.27440   16.47707   -7.16365
       H   -17.53455   14.38037  -15.23579
       O   -18.29031   14.58933  -14.77794
      H1   -18.10808   15.15995  -14.05305
       H   -13.38988   15.14030  -14.76253
       O   -14.28502   14.87463  -14.60514
      H1   -14.62560   14.71656  -15.51305
       H   -18.39034   14.19244  -10.41714
       O   -17.45688   14.08669  -10.48838
      H1   -17.24361   13.89531   -9.53706
       H   -12.40317   16.07016  -10.23368
       O   -13.19374   16.65842  -10.11748
      H1   -13.88973   16.40072  -10.74637
       H   -15.71623   20.16921  -11.17585
       O   -15.41963   19.38777  -10.73898
      H1   -16.23264   18.98095  -10.42510
       H   -15.04078   15.90148   -7.12325
       O   -15.45939   15.12678   -6.65630
      H1   -14.82397   14.41419   -6.44621
       H   -15.80826   11.33755  -14.84039
       O   -15.95541   11.10737  -13.92482
      H1   -16.77880   11.45003  -13.70742
       H   -19.85044   13.73420   -7.04623
       O   -19.21583   14.07805   -6.29901
      H1   -18.34598   14.00623   -6.67921
       H   -18.74566   14.33433  -17.21063
       O   -18.51949   13.97711  -18.04809
      H1   -18.10830   13.19471  -17.73156
       H   -18.00805   18.13974  -16.28422
       O   -17.55978   18.67888  -15.64392
      H1   -16.63966   18.59490  -16.01022
       H   -11.69249   12.90803   -8.62698
       O   -11.68960   13.19478   -7.70358
      H1   -11.49765   14.12292   -7.61548
       H   -18.69966   17.44156   -8.73000
       O   -19.26748   16.84783   -8.28222
      H1   -18.78304   16.46781   -7.51924
       H   -18.95564   18.89362  -10.45073
       O   -18.07483   18.90726   -9.91000
      H1   -18.18911   19.57500   -9.23847
       H   -13.93622   18.28052   -7.51892
       O   -13.98303   17.32227   -7.37942
      H1   -13.81417   17.14356   -8.32085
       H   -12.33358   18.03481  -15.55583
       O   -12.26853   18.37639  -14.66861
      H1   -13.18882   18.53872  -14.41186
       H   -15.33312   10.85451   -9.58068
       O   -15.86930   11.31261   -8.93536
      H1   -15.24320   11.31198   -8.17972
       H   -15.01123   13.47107  -17.15605
       O   -15.88984   13.78664  -16.93823
      H1   -16.25451   14.25049  -17.65320
       H   -11.36363   18.54792  -11.65402
       O   -12.12563   19.00419  -11.20989
      H1   -12.79602   18.33904  -10.93321
       H    -9.44027   13.29861  -12.65511
       O    -9.93440   13.26974  -11.83415
      H1   -10.24892   14.13288  -11.61342
       H   -14.87473   17.39041  -13.47227
       O   -14.83836   18.38851  -13.32900
      H1   -15.06956   18.54787  -12.41058
       H   -14.99838    8.33126  -13.46468
       O   -15.51000    8.46578  -14.26248
      H1   -15.73493    9.41526  -14.19076
       H   -15.81389    9.31463  -10.64675
       O   -15.33280    9.86759  -11.27656
      H1   -16.00490   10.46275  -11.60830
       H   -16.45498   14.07690   -7.47573
       O   -17.05145   13.42457   -7.90563
      H1   -16.53759   12.66180   -8.20013

