111
frame 3 | Written by MDAnalysis XYZWriter (release 2.4.3)
       H    -0.55667   10.54434    7.96975
       O    -1.44095   10.69625    8.40483
      H1    -1.72991    9.85164    8.77134
       H     1.75969   10.24008   -1.31326
       O     1.77450    9.39903   -1.73551
      H1     2.50575    8.96709   -1.25795
       H    -1.46220   12.61352    3.51127
       O    -1.72849   13.48536    3.12358
      H1    -2.22154   13.28607    2.31648
       H     6.59567   10.57569    3.44639
       O     7.19802   10.44442    2.63901
      H1     6.71746    9.77347    2.06343
       H    -2.17018   15.64083    1.76549
       O    -1.56460   16.28400    2.10519
      H1    -2.15254   17.05252    2.21971
       H     1.12212   12.80451   -0.49233
       O     1.68017   12.02894   -0.59678
      H1     2.39563   12.34464   -1.12284
       H     0.85703    9.55758    6.02584
       O     0.65414    9.87849    6.89807
      H1     1.52848   10.12115    7.31570
       H     3.37707   15.15021    6.87282
       O     3.92266   15.36108    7.62835
      H1     3.84528   16.32105    7.65242
       H     0.62948   18.82552    3.39292
       O     1.03011   17.91143    3.58655
      H1     1.90748   18.06468    3.99805
       H     4.44392   14.49781    1.35310
       O     4.66759   15.26783    0.79002
      H1     4.55087   16.09987    1.40273
       H     3.32575   11.29389    7.99654
       O     2.40236   11.58357    8.19445
      H1     2.39148   11.73353    9.15316
       H     1.92939   13.02668    5.63123
       O     2.08009   13.61219    6.37053
      H1     2.35256   13.02806    7.06244
       H    -0.12633   14.15097    2.60133
       O     0.71777   14.34881    2.14654
      H1     0.81873   15.24046    2.37291
       H    -0.22076   14.15930    0.60036
       O    -0.66297   13.72830   -0.15548
      H1    -1.12036   14.39775   -0.63899
       H     4.35271    7.92306    2.62223
       O     3.75977    8.61485    2.97646
      H1     3.59549    9.15649    2.22095
       H    -4.29125   14.22745    1.25024
       O    -3.80144   15.01309    1.00206
      H1    -4.41556   15.72179    1.02008
       H    -0.55767   17.10086    0.56469
       O    -0.26699   17.53587   -0.23896
      H1    -0.31878   17.07371   -1.05042
       H    -1.20719   13.34091    6.82791
       O    -0.61658   13.77319    7.42793
      H1     0.23840   13.57506    7.10024
       H    -1.25559    8.48777    3.10101
       O    -1.65197    9.37478    2.99868
      H1    -2.56313    9.23900    2.72522
       H     5.90749   13.67499    3.40807
       O     6.79558   13.86716    3.84121
      H1     6.67577   13.58227    4.73399
       H    -1.42739   11.65919    5.20662
       O    -0.87147   11.27973    4.56427
      H1    -1.22986   10.49649    4.11074
       H     5.01022   11.34616    3.77331
       O     5.21479   10.60921    4.34461
      H1     4.76590    9.85772    3.89506
       H    -2.54662   11.21824    0.65905
       O    -1.84308   11.27582   -0.00297
      H1    -1.40038   12.12606    0.08733
       H    -0.37856    8.92819    1.33375
       O     0.05496    8.17333    0.94077
      H1    -0.40602    8.12642    0.09835
       H     2.27378   11.15033    2.46572
       O     2.74112   10.95459    1.56677
      H1     2.26741   11.53085    0.90308
       H     5.02891   11.03667    5.96275
       O     4.99253   11.28027    6.90998
      H1     5.83468   10.85315    7.27737
       H     1.69243   15.69447   -2.36806
       O     1.08470   14.95011   -2.49183
      H1     0.83399   15.00632   -3.43406
       H     4.97127   18.44751    1.68871
       O     4.14289   18.02286    2.02467
      H1     3.53430   18.22029    1.30851
       H     6.25344   12.65600    6.79562
       O     6.64445   13.42251    6.45924
      H1     5.95309   14.09483    6.57863
       H    -3.07404   11.78986    6.75243
       O    -2.98303   12.25390    5.94079
      H1    -3.82458   12.17729    5.52680
       H     0.68443   11.91885    4.07300
       O     1.58681   12.20312    3.81962
      H1     1.40389   12.95254    3.17973
       H    -0.08914   17.62033    4.68824
       O    -0.80998   17.43413    5.30436
      H1    -1.21143   16.65607    4.94064
       H     1.52250    8.82112    3.92038
       O     1.08508    8.37655    4.64104
      H1     1.62711    7.58697    4.82933
       H    -0.00628   12.06429   -2.32491
       O    -0.39034   11.78637   -3.15639
      H1    -1.04276   11.11966   -2.79554
       H     4.40054   13.98610   -1.03919
       O     4.14395   13.23346   -1.59644
      H1     4.84979   12.99250   -2.21125
       H    -3.78926   15.11368    5.77825
       O    -2.96615   15.52962    5.34414
      H1    -2.80443   14.76857    4.78953
       H     5.55161   12.56852    1.69002
       O     4.71855   12.75881    2.12997
      H1     4.04139   12.12418    1.82525

