111
frame 10 | Written by MDAnalysis XYZWriter (release 2.4.3)
       H    -1.18057   -7.89829    0.17392
       O    -1.65159   -8.72883    0.50016
      H1    -2.01853   -8.50498    1.37355
       H     1.49858  -13.25520    8.31116
       O     1.97968  -12.47371    8.67142
      H1     2.00305  -11.77405    7.92515
       H    -0.38476   -6.11260    6.38489
       O     0.05099   -6.52442    7.13985
      H1    -0.71260   -6.96078    7.60395
       H     1.07237  -11.37199   11.69262
       O     1.29470  -12.33100   11.53936
      H1     1.11776  -12.41594   10.60164
       H     2.92745  -12.11646    2.41385
       O     3.08669  -11.27493    1.95980
      H1     2.39687  -10.73611    2.38342
       H    -3.54767  -11.10118    2.53530
       O    -3.80988  -10.18033    2.34015
      H1    -3.17471   -9.53644    2.62492
       H    -0.38788  -13.34637    4.94463
       O     0.34803  -12.79518    5.26313
      H1     1.09871  -13.00671    4.74415
       H    -2.95866   -8.35883   10.71148
       O    -2.22780   -7.67862   10.45620
      H1    -2.49984   -6.77325   10.76959
       H    -5.43136   -7.48749    4.85771
       O    -4.59157   -7.02618    5.05968
      H1    -4.63940   -6.20437    4.56303
       H    -1.33533   -8.81739   12.98919
       O    -0.91921   -7.97107   12.80310
      H1    -1.22151   -7.75382   11.92213
       H    -1.61809  -16.21111    9.24229
       O    -1.56845  -15.26154    9.17141
      H1    -2.07670  -14.87915    8.50240
       H    -5.79228   -8.15707   10.29869
       O    -6.11405   -7.79863    9.46758
      H1    -5.72100   -8.46503    8.84154
       H    -3.55691  -12.26681    9.35016
       O    -4.06498  -12.92577    9.81374
      H1    -3.43571  -13.61272    9.99710
       H    -3.89476  -12.86024    1.61602
       O    -3.75663  -13.02285    2.54705
      H1    -4.52080  -13.54612    2.84992
       H    -0.38670  -10.34902    7.55777
       O    -0.83923  -10.39930    6.71708
      H1    -0.27790  -10.96021    6.14098
       H     0.57763   -8.80391   12.08581
       O     1.08727   -9.51591   11.75066
      H1     2.00556   -9.27164   11.76305
       H    -2.73807   -7.86279    6.02048
       O    -2.42822   -7.92644    6.90902
      H1    -1.70959   -8.53320    6.88855
       H     5.33438  -11.78889    5.70276
       O     4.59325  -12.15499    6.18551
      H1     4.95817  -12.20457    7.12274
       H    -3.47754  -13.71401    7.26034
       O    -3.02070  -14.49486    6.94657
      H1    -3.69715  -15.14429    6.88625
       H    -1.54912  -11.01395    1.91956
       O    -0.74950  -11.38255    2.31651
      H1    -0.76500  -11.57345    3.32337
       H     4.45552   -7.99995    8.22387
       O     3.79302   -8.48115    8.78578
      H1     3.23591   -7.68025    9.05774
       H     0.27608   -9.53748   10.09789
       O    -0.13827   -9.50630    9.24097
      H1    -0.90648   -8.86650    9.35116
       H    -4.21802   -8.86091    7.36319
       O    -5.04944   -9.37108    7.41574
      H1    -5.44720   -9.16024    6.55624
       H     0.13568  -14.73050    7.96649
       O     0.82633  -14.56511    7.32047
      H1     0.51280  -13.93039    6.70134
       H     0.99612   -7.68229    6.15407
       O     1.39463   -8.32322    5.53902
      H1     1.82784   -9.00363    6.12676
       H    -0.15940  -12.89253    1.48567
       O     0.32787  -13.72574    1.26893
      H1     0.92643  -13.53131    0.59240
       H     3.36688  -10.69283    6.83227
       O     2.55017  -10.24027    7.06123
      H1     2.87888   -9.69601    7.78790
       H     3.51042  -15.52359    8.98890
       O     3.77290  -14.57578    9.02576
      H1     2.99810  -14.08713    8.67360
       H    -1.96348   -7.21657    3.18360
       O    -2.58512   -7.87021    3.43320
      H1    -3.39045   -7.58547    3.82661
       H     1.15601   -9.04590    3.95196
       O     1.20844   -9.58723    3.09776
      H1     0.30008   -9.78582    2.79387
       H     3.61572  -13.53736    4.30092
       O     2.91946  -13.44832    3.68853
      H1     2.70913  -14.30670    3.28227
       H     1.57777   -6.44632    8.29977
       O     2.30427   -6.28893    8.95677
      H1     1.82244   -5.79437    9.65125
       H    -2.61910  -13.39773    3.75379
       O    -2.02592  -13.68359    4.47547
      H1    -2.62865  -13.91219    5.26579
       H    -4.19292   -4.29036    6.62878
       O    -4.84069   -4.94180    6.74306
      H1    -4.51368   -5.78367    6.47841
       H    -4.44059  -12.09624    5.75821
       O    -5.35204  -12.21918    5.46932
      H1    -5.28066  -12.29143    4.53695
       H    -2.48648  -10.93435    7.10714
       O    -3.26275  -11.43405    7.42318
      H1    -3.97725  -10.84129    7.50133
       H    -0.43799   -5.76160    3.35943
       O    -0.25211   -6.32371    2.58090
      H1     0.70175   -6.43346    2.53813

