111
frame 11 | Written by MDAnalysis XYZWriter (release 2.4.3)
       H     2.58271  -10.82343    0.64864
       O     2.14398  -10.96279   -0.21146
      H1     2.77797  -10.54468   -0.79977
       H    -0.07087  -17.12007    2.70943
       O     0.75396  -17.57527    2.86611
      H1     1.47946  -16.92585    2.77144
       H    -5.13637  -18.08579   -3.18414
       O    -4.24211  -18.42197   -3.29986
      H1    -3.80040  -17.88504   -3.95421
       H     2.54754  -15.04427    2.07538
       O     2.82173  -15.73136    2.69867
      H1     3.70123  -15.94945    2.30970
       H     3.12403  -11.60632    3.24466
       O     3.23517  -10.76517    2.79751
      H1     2.36953  -10.31266    3.02269
       H     4.51737  -18.20726    3.45706
       O     4.63515  -19.01052    2.98215
      H1     4.03741  -18.98828    2.24744
       H    -2.54083  -14.98285   -4.64615
       O    -2.29230  -14.05240   -4.50196
      H1    -3.16679  -13.60402   -4.47860
       H    -0.57728  -13.01823   -3.66162
       O     0.02096  -12.55487   -3.07168
      H1    -0.52259  -11.79346   -2.82210
       H     0.90604  -15.20303   -3.20539
       O     1.21091  -14.74510   -2.38391
      H1     0.89991  -13.83962   -2.51938
       H    -1.01802  -13.08724    4.71693
       O    -0.57414  -12.45427    5.26185
      H1     0.26736  -12.16432    4.97254
       H     4.49817  -17.50162    0.67988
       O     4.76591  -16.61929    1.01022
      H1     4.43632  -15.97945    0.31882
       H    -4.18918  -12.32226    2.41751
       O    -4.00489  -13.26132    2.33051
      H1    -4.35248  -13.46993    1.45815
       H    -2.47607  -17.44088    4.55209
       O    -2.80624  -18.08017    5.13853
      H1    -2.15803  -18.10668    5.85837
       H    -0.68878  -19.77778   -3.51647
       O    -0.27092  -18.94896   -3.25691
      H1    -0.91405  -18.49487   -2.67093
       H    -1.44625  -14.52578   -0.65736
       O    -2.28372  -14.13330   -0.86600
      H1    -2.24819  -13.59744   -1.67586
       H     3.03376  -18.89789   -0.32431
       O     3.78246  -18.90459    0.27517
      H1     4.43662  -19.61115    0.01844
       H     2.70037  -13.77555   -1.21146
       O     3.15896  -14.02889   -0.41401
      H1     4.01226  -13.60789   -0.51418
       H     0.24822  -15.11490    0.85353
       O    -0.15799  -15.60209    0.14274
      H1     0.43890  -15.55758   -0.65251
       H    -1.33153  -10.49523    1.12367
       O    -0.79124  -11.25324    1.29624
      H1    -1.35093  -11.99684    0.88983
       H    -2.46216  -16.52998    2.23865
       O    -1.82449  -16.55904    2.92438
      H1    -1.93754  -15.74747    3.46659
       H    -5.30746  -14.97544   -3.15733
       O    -6.05981  -14.98250   -2.55931
      H1    -5.70622  -14.91921   -1.66231
       H    -3.41931  -18.08744    0.60109
       O    -4.20803  -17.43924    0.60448
      H1    -4.52908  -17.47469    1.51786
       H    -1.40485  -19.19902    0.07865
       O    -2.24441  -19.51257    0.46403
      H1    -2.12243  -19.84325    1.33461
       H     4.27010  -16.50475   -2.46429
       O     4.03463  -15.60849   -2.83390
      H1     3.25724  -15.34783   -2.30813
       H    -4.35039  -11.43430    0.01423
       O    -3.44878  -11.59438   -0.22120
      H1    -3.41241  -12.56199   -0.32075
       H     0.87352  -12.35308    1.57477
       O     1.43750  -13.20040    1.70543
      H1     2.06510  -13.15322    0.96150
       H    -5.30558  -15.45919    0.47979
       O    -5.45394  -14.59441    0.14916
      H1    -6.17165  -14.21714    0.73750
       H    -3.04413  -17.52593   -2.25905
       O    -2.20146  -17.21579   -1.98554
      H1    -2.34945  -16.39545   -1.55026
       H     1.50670  -18.56764   -2.45142
       O     2.27079  -18.40076   -1.94235
      H1     2.97039  -18.50366   -2.66519
       H     0.84651   -9.81483    4.30965
       O     0.79636   -9.76948    3.30304
      H1     0.14248  -10.42329    3.04994
       H     3.43927  -13.37058    4.69286
       O     2.59919  -12.86632    4.43485
      H1     2.30164  -13.37443    3.66568
       H     0.78938  -18.53777    1.18336
       O     0.66117  -19.18141    0.42723
      H1     1.10257  -19.97404    0.77375
       H    -0.54506  -18.05924   -4.87951
       O    -0.50056  -17.56073   -5.74854
      H1    -0.74242  -18.09825   -6.48988
       H     0.39878  -16.31181    5.96943
       O     0.68992  -17.23649    5.71761
      H1     0.60098  -17.42446    4.71417
       H    -2.66450  -13.94775    3.59797
       O    -2.22956  -14.35018    4.41419
      H1    -2.90864  -14.16043    5.12784
       H     0.29480  -15.97051   -5.40252
       O     0.84586  -15.22656   -5.09780
      H1     0.54715  -14.39789   -5.49414
       H    -2.38685  -10.93839   -1.74704
       O    -1.92794  -10.61735   -2.54025
      H1    -1.43703   -9.83247   -2.23106

