111
frame 5 | Written by MDAnalysis XYZWriter (release 2.4.3)
       H   -15.43180   -5.68822    9.89109
       O   -16.06982   -6.41615    9.89469
      H1   -16.97549   -5.95128    9.78175
       H   -13.20502  -11.62531    9.35046
       O   -13.41899  -12.23830    8.60859
      H1   -13.63936  -11.74450    7.81391
       H   -17.25968   -9.77413   11.46150
       O   -17.46605  -10.71112   11.37689
      H1   -18.26527  -10.82291   11.88498
       H   -16.72230   -4.97515   12.85092
       O   -16.08769   -4.29462   13.07863
      H1   -16.35139   -4.06868   13.99145
       H   -13.19699   -7.45709    8.88483
       O   -13.77506   -8.10095    9.32697
      H1   -14.48727   -7.48448    9.59162
       H   -17.02125   -7.67439   11.57482
       O   -17.80450   -7.99964   12.00357
      H1   -18.39985   -8.03806   11.23240
       H   -10.29327  -10.91038   10.70237
       O    -9.99710  -11.51967   11.40100
      H1   -10.47015  -12.40258   11.22369
       H   -10.34070   -4.64195    9.07278
       O    -9.64661   -5.28856    9.14260
      H1    -8.96787   -5.16405    8.44174
       H   -15.15549   -7.52274    6.51302
       O   -15.30675   -8.23611    7.11451
      H1   -14.87873   -8.08813    7.92182
       H   -13.64178   -3.86253   10.42821
       O   -14.59755   -4.14802   10.52596
      H1   -15.17131   -3.40069   10.31988
       H   -14.91288  -13.67666    9.24379
       O   -15.75343  -14.17659    9.29477
      H1   -15.83495  -14.55105   10.22599
       H   -14.96652  -12.23671   12.67412
       O   -14.95975  -11.36801   12.25087
      H1   -15.79066  -11.28752   11.75487
       H   -18.32310  -13.55040    5.92971
       O   -18.42895  -12.69415    6.25529
      H1   -17.92007  -12.63591    7.11225
       H   -11.22425  -11.58190    5.22124
       O   -11.25765  -11.90423    4.30704
      H1   -10.44691  -12.42381    4.17274
       H   -10.83461  -11.52553    7.00296
       O   -11.10556  -10.62249    6.69956
      H1   -10.34123  -10.17800    6.33850
       H   -14.03830   -8.25351   11.06796
       O   -14.63421   -8.33487   11.90395
      H1   -14.44837   -7.47702   12.31453
       H   -13.29232   -6.29608    3.75629
       O   -13.50013   -5.34028    3.94642
      H1   -13.51290   -5.18518    4.90974
       H   -13.49803  -10.94107   11.08996
       O   -12.84105  -10.57098   10.53306
      H1   -13.15838   -9.70655   10.20735
       H   -17.73433   -1.81268    7.92307
       O   -17.19049   -2.22972    8.61477
      H1   -16.26577   -2.25274    8.28161
       H   -18.77896  -10.62903    5.41787
       O   -19.25836   -9.94614    4.87360
      H1   -20.14326  -10.30837    4.75646
       H   -10.51615   -6.81928    5.27725
       O   -10.85039   -7.47590    5.93390
      H1   -10.97666   -8.25624    5.50376
       H   -13.54788   -9.81930    2.66140
       O   -13.48821  -10.80821    2.63782
      H1   -12.74890  -10.90874    3.27452
       H   -11.63166   -6.17173    8.98807
       O   -12.19430   -6.13674    8.18536
      H1   -11.57819   -6.66939    7.52161
       H   -17.34762   -4.38036    4.30364
       O   -17.60592   -3.61764    3.73354
      H1   -17.46609   -3.94788    2.80039
       H   -15.11275  -12.03747    5.50302
       O   -15.64711  -12.74166    5.05729
      H1   -16.27867  -12.99823    5.77427
       H   -17.23289  -13.33381    9.17994
       O   -17.96426  -12.68522    9.08701
      H1   -17.71385  -11.96068    9.71859
       H   -19.29937   -4.77923    9.76864
       O   -18.39664   -4.93294    9.52627
      H1   -18.20048   -4.11342    9.05499
       H   -12.45051   -7.99042    2.47036
       O   -13.40573   -8.05875    2.54929
      H1   -13.75205   -7.66528    1.74420
       H   -10.96947   -5.93795   11.79310
       O   -11.68337   -5.53416   11.35002
      H1   -12.32915   -5.46180   12.04164
       H   -17.88612   -6.64531    2.37629
       O   -17.12708   -6.98817    2.81683
      H1   -16.38851   -7.04113    2.14196
       H   -11.77135  -12.96021    7.91317
       O   -11.18852  -13.36834    7.28922
      H1   -11.77097  -13.89178    6.67131
       H   -14.47310   -9.68727    6.51183
       O   -13.87954  -10.45239    6.54379
      H1   -13.03461  -10.10650    6.75030
       H   -16.00356   -5.26823    5.41413
       O   -16.79535   -5.68996    5.07881
      H1   -16.53353   -6.11072    4.24781
       H   -13.86191   -5.20155    7.47800
       O   -14.24415   -4.84105    6.69220
      H1   -14.44547   -3.88698    6.76574
       H   -18.51630   -5.71811    5.54267
       O   -19.43726   -5.59630    5.64790
      H1   -19.87395   -5.89929    4.82316
       H   -11.25579   -2.70554    9.46844
       O   -11.77812   -3.34700    8.97288
      H1   -11.49732   -3.37830    8.04260
       H   -14.26749  -10.19697   13.57000
       O   -14.09780   -9.71679   14.40735
      H1   -13.77197   -8.86536   14.02437

