111
frame 11 | Written by MDAnalysis XYZWriter (release 2.4.3)
       H    -4.64135  -16.50431   -9.99689
       O    -5.46201  -16.50401  -10.56395
      H1    -5.54959  -17.42088  -10.85208
       H    -8.27920  -18.88887  -14.64696
       O    -8.32792  -17.89941  -14.50034
      H1    -7.50608  -17.62481  -14.04543
       H    -4.21480  -13.81376  -13.93265
       O    -4.23606  -13.80708  -13.01831
      H1    -3.58950  -14.50222  -12.74808
       H    -8.59519  -12.01001  -10.56473
       O    -8.44383  -11.47007  -11.32329
      H1    -7.51055  -11.18381  -11.15857
       H    -4.26722  -17.85668  -13.62965
       O    -4.97098  -17.20675  -13.38507
      H1    -4.66553  -16.70779  -12.60945
       H    -3.00053  -14.85259  -18.10168
       O    -2.78450  -13.94456  -18.32607
      H1    -2.16916  -14.01333  -19.05113
       H    -9.35103  -13.79794  -16.20540
       O    -9.31344  -13.03125  -15.66191
      H1    -8.72881  -13.29939  -14.91446
       H    -9.26447  -13.72667   -9.44286
       O    -8.72802  -13.08443   -9.01476
      H1    -9.18488  -12.84615   -8.18651
       H    -8.83083  -16.75323   -7.96668
       O    -8.02666  -16.72488   -8.49846
      H1    -8.12461  -16.22344   -9.38449
       H    -6.42952  -11.93652  -16.43733
       O    -5.85134  -11.66314  -15.68741
      H1    -6.40263  -11.27734  -15.00946
       H    -5.44939  -17.83734  -16.01829
       O    -5.50617  -16.84542  -16.06557
      H1    -5.23611  -16.55397  -15.14558
       H    -2.26859  -16.86859  -10.84940
       O    -2.73226  -17.72124  -10.52651
      H1    -2.29078  -17.85755   -9.64901
       H    -5.61582   -9.56103  -11.60418
       O    -5.92079   -9.94129  -10.74430
      H1    -6.55041   -9.25382  -10.46674
       H    -0.95107  -14.36662  -15.62037
       O    -0.55694  -15.21371  -15.87813
      H1    -0.26785  -15.61798  -15.04283
       H     0.41371  -17.55364  -13.88140
       O     0.40060  -16.66478  -13.45804
      H1     1.33695  -16.39992  -13.26543
       H    -6.76168  -13.23865  -12.98578
       O    -7.63271  -13.43972  -13.39917
      H1    -8.22845  -13.12791  -12.70354
       H    -3.78063  -13.68147  -16.28834
       O    -4.28002  -14.11371  -15.62995
      H1    -5.13518  -13.66429  -15.72121
       H    -4.09729  -14.83273   -7.17895
       O    -4.63781  -15.66617   -7.06288
      H1    -5.55737  -15.30522   -6.84599
       H    -1.51628  -13.72394   -9.44202
       O    -0.93185  -13.62554  -10.20370
      H1    -0.45863  -12.73849  -10.23142
       H    -1.01837  -15.76263  -12.39121
       O    -1.83205  -15.41293  -12.01013
      H1    -1.57069  -14.75679  -11.39925
       H     0.34017  -11.27330  -11.40351
       O     0.56626  -11.36415  -10.45731
      H1     0.08473  -10.71158   -9.88717
       H    -4.12018  -11.19810  -16.12014
       O    -3.22431  -10.90838  -15.83437
      H1    -3.15244  -10.00002  -16.07245
       H    -2.00871  -13.50181   -7.51475
       O    -2.66754  -13.99103   -7.92687
      H1    -3.19860  -13.34272   -8.42048
       H    -2.41985  -16.20516  -16.70608
       O    -3.03264  -16.52864  -17.35863
      H1    -3.92437  -16.53412  -16.90550
       H    -3.40033  -12.44015  -11.95318
       O    -3.04137  -11.57732  -11.73181
      H1    -2.07472  -11.74843  -11.92754
       H    -8.37737  -14.88324  -11.75372
       O    -7.82018  -15.37439  -11.17684
      H1    -7.05555  -15.46872  -11.71153
       H    -7.90763  -15.56599  -16.94646
       O    -8.90688  -15.57334  -16.82917
      H1    -8.94271  -16.29037  -16.12708
       H    -3.94841   -9.66002  -13.27032
       O    -4.63685   -9.01331  -13.13953
      H1    -4.92580   -8.71419  -14.02433
       H    -7.03710  -16.32376  -18.96165
       O    -6.49577  -15.72220  -18.42112
      H1    -6.18254  -16.27637  -17.69897
       H    -2.50976  -19.71026  -15.88344
       O    -2.27324  -18.75316  -15.73182
      H1    -2.64950  -18.16378  -16.41589
       H    -0.67608  -12.02562  -15.83193
       O    -1.08365  -12.32423  -15.01454
      H1    -1.95808  -11.86913  -15.07819
       H    -4.09577  -19.11356  -10.38156
       O    -4.97340  -19.50688  -10.16795
      H1    -5.35370  -18.93579   -9.46585
       H    -6.71760  -13.72490  -18.42722
       O    -6.93913  -12.76124  -18.24798
      H1    -6.07212  -12.28957  -18.30173
       H    -4.06125   -8.42784   -9.41162
       O    -4.40926   -8.70862   -8.56884
      H1    -4.96072   -9.46319   -8.88333
       H    -6.87600  -11.03566   -7.98805
       O    -6.39218  -11.83200   -8.20286
      H1    -7.08229  -12.40214   -8.51301
       H    -3.68182  -11.77459  -10.07913
       O    -3.93957  -11.91404   -9.12171
      H1    -4.87310  -11.66056   -9.19281
       H    -0.43483  -11.32204  -13.81681
       O    -0.14957  -10.75493  -13.05943
      H1    -0.72096   -9.99018  -12.95007

