111
frame 11 | Written by MDAnalysis XYZWriter (release 2.4.3)
       H    -8.59519  -12.01001  -10.56473
       O    -8.44383  -11.47007  -11.32329
      H1    -7.51055  -11.18381  -11.15857
       H   -10.83307  -10.07514  -12.46013
       O   -11.45177  -10.27282  -13.14297
      H1   -10.99770  -10.29210  -14.02498
       H   -16.40506   -4.14235  -12.62166
       O   -15.61462   -4.59118  -13.01034
      H1   -15.49102   -5.39796  -12.44597
       H   -12.99135   -6.09873  -10.85701
       O   -12.17521   -5.90609  -10.29025
      H1   -12.03026   -4.97496  -10.37601
       H   -10.77974  -13.95889  -11.04743
       O   -10.72548  -14.48117  -10.23781
      H1   -10.55673  -15.41078  -10.54571
       H   -14.49069   -9.40176  -13.85878
       O   -13.73542   -8.78994  -13.75821
      H1   -13.05935   -9.34653  -13.34127
       H   -11.68150   -9.18264   -6.32607
       O   -12.33334   -9.12341   -5.57656
      H1   -12.74454   -8.20556   -5.62879
       H   -15.69551   -4.02756   -8.39247
       O   -15.42861   -4.72931   -9.02145
      H1   -14.78771   -4.31199   -9.59308
       H    -6.63974   -6.85551   -9.12086
       O    -7.25168   -7.52140   -9.50258
      H1    -7.94565   -7.05335  -10.01087
       H    -9.26447  -13.72667   -9.44286
       O    -8.72802  -13.08443   -9.01476
      H1    -9.18488  -12.84615   -8.18651
       H   -14.99446  -12.94648  -12.76292
       O   -15.53079  -12.39551  -13.26409
      H1   -15.14211  -12.42386  -14.17036
       H   -13.74752   -7.79218   -8.32819
       O   -14.62455   -7.43246   -7.99495
      H1   -14.79151   -6.48544   -8.31660
       H    -8.94332   -5.14277   -7.38600
       O    -8.09935   -4.92919   -6.95793
      H1    -7.40779   -5.08685   -7.62491
       H    -5.61582   -9.56103  -11.60418
       O    -5.92079   -9.94129  -10.74430
      H1    -6.55041   -9.25382  -10.46674
       H   -13.71648   -6.97277   -6.59149
       O   -13.03724   -6.65896   -5.93202
      H1   -13.57140   -6.07601   -5.33990
       H    -9.96663   -6.03415  -12.53943
       O    -9.74725   -6.23059  -11.61314
      H1   -10.68439   -6.12613  -11.26781
       H   -15.04161  -11.09018  -10.64120
       O   -15.80066  -10.65937  -11.12727
      H1   -15.68399  -11.04632  -11.99751
       H    -9.36746  -10.03830  -11.29358
       O    -9.79868   -9.22071  -11.04358
      H1    -9.34527   -8.43950  -11.44441
       H   -13.93187  -10.01855   -2.85682
       O   -13.07046  -10.36667   -3.15888
      H1   -12.99197  -10.16061   -4.09083
       H    -7.51675   -8.73608   -8.31509
       O    -7.51085   -9.40635   -7.57984
      H1    -7.05198   -8.94786   -6.86712
       H   -11.65451   -6.22679   -7.09090
       O   -11.04888   -5.77582   -7.65688
      H1   -11.43529   -5.88467   -8.52749
       H   -10.16386  -11.48103   -6.99498
       O    -9.66916  -12.27673   -6.78117
      H1   -10.39141  -12.98147   -6.86793
       H   -10.78851   -9.04041   -8.09664
       O   -10.23874   -9.46560   -7.45435
      H1    -9.35129   -9.48374   -7.75149
       H   -17.53151   -8.24792   -8.27999
       O   -18.05821   -8.00900   -7.52157
      H1   -17.52347   -7.37376   -7.05283
       H   -10.95163  -12.21246  -12.75663
       O   -10.66461  -13.14488  -12.69313
      H1   -10.82373  -13.52022  -13.58079
       H   -12.38478  -11.84474   -4.44215
       O   -12.11511  -12.60870   -4.98346
      H1   -12.95147  -13.16008   -4.76018
       H    -9.51481   -9.51145   -4.09867
       O    -9.94842   -8.65547   -4.13693
      H1   -10.81693   -8.76951   -4.56311
       H   -15.61567   -8.02643   -9.29484
       O   -16.25437   -7.98155   -9.99449
      H1   -16.11321   -8.82033  -10.52696
       H   -11.56431  -14.37414   -8.44355
       O   -11.55504  -14.42812   -7.47159
      H1   -11.09919  -15.30813   -7.19799
       H   -17.46496   -9.74081   -7.06140
       O   -17.04915  -10.60152   -6.86887
      H1   -16.09376  -10.43793   -6.86310
       H   -12.00622   -7.90746   -9.36901
       O   -12.51046   -8.64377   -8.93309
      H1   -12.46881   -9.37758   -9.54709
       H   -13.25036  -12.36858   -9.88532
       O   -13.47511  -11.40271   -9.78868
      H1   -13.64143  -11.34136   -8.83363
       H    -6.87600  -11.03566   -7.98805
       O    -6.39218  -11.83200   -8.20286
      H1    -7.08229  -12.40214   -8.51301
       H   -12.85793  -14.53086  -11.09512
       O   -13.72589  -14.02817  -11.03671
      H1   -14.22156  -14.58586  -10.44589
       H   -14.29828  -12.37516   -7.18158
       O   -13.70282  -11.59031   -7.09939
      H1   -13.03630  -11.86454   -6.42060
       H   -11.64389   -3.95067   -7.29606
       O   -11.65281   -3.04374   -7.56864
      H1   -10.73126   -2.78548   -7.63216
       H   -14.85854   -7.43600  -10.86732
       O   -14.34788   -6.88248  -11.46994
      H1   -14.19300   -7.44646  -12.24303

