111
frame 6 | Written by MDAnalysis XYZWriter (release 2.4.3)
       H     2.94417  -17.07108  -10.60417
       O     2.57038  -17.92665  -10.65251
      H1     2.46721  -18.11373  -11.59311
       H     9.46335  -16.41236  -18.38989
       O    10.25836  -15.79073  -18.43862
      H1    11.06173  -16.36287  -18.59421
       H    11.62339  -19.18163  -16.44830
       O    11.33386  -19.06161  -15.59494
      H1    11.25085  -18.12336  -15.52366
       H     5.44330  -15.55102  -17.07976
       O     5.76814  -14.80160  -16.55589
      H1     6.70554  -14.69332  -16.60689
       H     6.38389  -13.74147  -12.74444
       O     5.44443  -13.66995  -12.54190
      H1     5.16403  -12.75052  -12.71125
       H     3.44704  -17.11851  -17.98797
       O     4.44391  -17.25665  -17.82816
      H1     4.45953  -17.99272  -17.22083
       H     6.63882  -17.23624   -9.25304
       O     6.93354  -16.52188   -9.83920
      H1     6.19139  -16.44263  -10.49838
       H     6.32219  -16.04215   -6.03354
       O     5.64560  -16.70889   -5.98203
      H1     4.82833  -16.41369   -6.42097
       H    13.46213  -17.39485  -14.77209
       O    14.28847  -17.65868  -15.24708
      H1    14.01004  -18.45667  -15.65169
       H     2.64615  -19.03331  -13.39801
       O     2.39427  -18.09431  -13.39839
      H1     3.23099  -17.58672  -13.43070
       H    10.68471  -12.69308   -8.53888
       O     9.76341  -12.54924   -8.74900
      H1     9.41866  -13.40967   -8.94743
       H     6.60973  -14.39720   -7.60595
       O     7.33815  -15.01258   -7.54533
      H1     7.22854  -15.46763   -8.38674
       H    12.80667  -20.09658   -8.33293
       O    13.38415  -19.61034   -8.94285
      H1    12.87528  -18.75300   -9.01062
       H    13.57046  -14.02261  -11.33813
       O    13.05087  -14.19409  -10.54229
      H1    13.15123  -15.13633  -10.34705
       H     7.76833  -18.66311   -6.47518
       O     8.65560  -18.27306   -6.61590
      H1     8.72141  -18.43943   -7.57385
       H    10.39747  -17.11297   -6.62942
       O    11.21370  -16.58021   -6.47529
      H1    11.02125  -15.72569   -6.17960
       H    13.82326  -19.60436  -10.73475
       O    14.15123  -19.43819  -11.61236
      H1    13.41918  -19.37714  -12.21055
       H     6.36812  -19.95779  -12.20189
       O     6.01292  -19.26707  -11.65167
      H1     5.06895  -19.47931  -11.61840
       H    13.37719  -16.79098   -8.73444
       O    12.49809  -17.13869   -8.94904
      H1    11.98297  -16.88640   -8.21228
       H     7.74139  -18.32667  -16.26410
       O     7.43098  -19.22291  -16.03503
      H1     7.63449  -19.80409  -16.78762
       H     9.75107  -15.35956  -10.81677
       O     9.06437  -14.75442  -10.59566
      H1     8.35777  -15.32148  -10.31762
       H     6.10263  -19.37215   -9.75565
       O     6.12936  -19.22071   -8.78226
      H1     5.23898  -18.87807   -8.44545
       H     4.32617  -17.30084  -15.30239
       O     4.36334  -16.50941  -14.75565
      H1     5.07554  -15.84976  -15.07639
       H     5.02435  -17.09348  -12.27204
       O     4.85802  -16.34749  -11.64626
      H1     4.95037  -15.53749  -12.11926
       H    10.62075  -12.46434  -10.23834
       O    11.27748  -12.38724  -10.94153
      H1    11.82041  -13.17670  -10.80949
       H    10.98717  -15.98552  -15.18309
       O    10.29955  -16.34314  -15.85211
      H1    10.48218  -15.95445  -16.70301
       H    11.68152  -16.29081  -13.41685
       O    12.28919  -16.05350  -14.12802
      H1    12.65797  -15.20039  -13.82643
       H     4.92706  -13.23161  -10.08722
       O     4.58152  -14.05624   -9.64119
      H1     5.04145  -14.69403  -10.22318
       H     8.13662  -14.81256  -13.50701
       O     8.14678  -13.86456  -13.15134
      H1     8.49366  -13.84784  -12.25467
       H     8.70362  -18.93774  -12.51509
       O     8.54021  -18.09244  -12.06594
      H1     7.94861  -18.37265  -11.38890
       H    15.06042  -16.26070  -12.79621
       O    14.93244  -16.54873  -11.86012
      H1    14.87412  -17.50751  -11.91177
       H    10.02819  -10.43279  -12.06287
       O     9.24774  -10.76698  -12.48546
      H1     9.63296  -11.58117  -12.90091
       H     8.51725  -14.78857   -6.14772
       O     9.27048  -14.61395   -5.53041
      H1     9.38093  -13.58864   -5.42715
       H     8.36519  -17.78850  -19.06658
       O     7.86468  -17.20684  -18.45314
      H1     7.23005  -16.77163  -19.06700
       H     3.16950  -18.56507   -9.00668
       O     3.49722  -18.78195   -8.11331
      H1     3.28400  -18.03819   -7.54194
       H     8.80911  -16.26592  -15.01988
       O     8.03782  -16.25687  -14.42511
      H1     8.12993  -16.98003  -13.79564
       H    11.35744  -17.05200  -10.34165
       O    10.75701  -16.74663  -11.06940
      H1     9.93594  -17.32620  -11.12869

