111
frame 6 | Written by MDAnalysis XYZWriter (release 2.4.3)
       H     0.71270   17.40825  -10.46742
       O     1.47528   17.20107  -11.06401
      H1     2.18411   16.76454  -10.51261
       H    -8.02429   11.55576  -13.26719
       O    -7.94740   12.45157  -13.60179
      H1    -8.41263   12.91620  -12.91485
       H    -3.97080   14.33227  -11.03071
       O    -4.57063   13.60440  -11.01412
      H1    -4.36242   12.96366  -11.66655
       H    -4.00293   14.92009  -15.16210
       O    -3.02480   15.04791  -15.22361
      H1    -2.88370   15.68789  -15.96427
       H    -2.62262   16.47438  -12.71257
       O    -2.81754   17.01727  -13.48674
      H1    -2.88740   16.38304  -14.22511
       H    -3.44829   19.27255  -14.39793
       O    -4.27519   19.79796  -14.37666
      H1    -4.84607   19.52442  -13.66756
       H     0.79557   16.02098  -13.42455
       O     1.17774   15.22894  -13.01103
      H1     1.32924   15.51021  -12.08364
       H     1.39056   12.00598  -12.83541
       O     1.25248   11.83216  -11.87584
      H1     0.32037   11.60001  -11.80150
       H    -1.20658   18.96688  -11.00830
       O    -1.18788   19.20985  -10.04709
      H1    -2.11858   19.29000   -9.82781
       H    -1.69646   14.00479  -13.33018
       O    -1.07520   13.85056  -12.60994
      H1    -0.30663   14.25274  -12.91708
       H    -6.05524   14.68577  -11.05186
       O    -6.68812   15.45125  -11.16765
      H1    -6.18706   16.26404  -10.95770
       H    -8.61782   18.40575  -12.87464
       O    -8.00032   18.22634  -12.11951
      H1    -7.43424   17.44062  -12.27821
       H     0.95539   14.63585   -7.21769
       O     0.33753   14.30695   -7.87041
      H1     0.62642   13.39335   -7.97853
       H    -6.30966   10.49188   -8.57688
       O    -5.72742   10.83551   -7.84201
      H1    -4.94801   11.31285   -8.28055
       H    -7.35714   10.12075  -11.86930
       O    -7.84143    9.92802  -12.64936
      H1    -8.72056    9.48720  -12.38874
       H    -4.85724   10.60940  -12.84119
       O    -4.45697   11.41118  -13.14988
      H1    -4.96387   11.61428  -13.93127
       H    -4.71492   17.13978  -14.09450
       O    -5.60416   16.98476  -13.78209
      H1    -6.25386   17.22841  -14.48664
       H    -2.14972   11.61976  -10.07307
       O    -1.50614   11.50980  -10.76887
      H1    -1.69398   12.11806  -11.52081
       H    -4.12644   15.72885   -5.28062
       O    -4.33106   16.57511   -5.71423
      H1    -4.96185   16.94253   -5.07088
       H    -5.88002   17.18107   -8.83249
       O    -6.21220   18.04685   -9.14963
      H1    -5.56385   18.69679   -8.97123
       H    -6.34295   14.61002   -6.95498
       O    -6.51870   15.50366   -7.03778
      H1    -5.71143   15.91236   -6.67921
       H    -7.36576   16.27314  -16.19377
       O    -7.70489   15.30832  -16.16873
      H1    -7.26850   14.80857  -15.41713
       H    -2.17332   10.38852   -7.44056
       O    -2.50640    9.49170   -7.21487
      H1    -3.28107    9.58066   -6.70623
       H    -9.46746   12.80949   -9.86968
       O    -9.61449   12.37325   -9.03194
      H1   -10.06172   13.08634   -8.54853
       H    -0.65877   13.13742  -15.46543
       O    -1.29262   13.30007  -16.15249
      H1    -1.95589   13.91192  -15.79588
       H    -1.58033   18.51314  -13.04716
       O    -0.78351   19.00237  -12.68157
      H1    -0.92315   19.88471  -13.03596
       H    -6.45698   13.53788  -13.95035
       O    -5.92823   14.31891  -14.19623
      H1    -6.06596   14.98288  -13.50658
       H     1.81746   12.94753  -10.77079
       O     2.42559   13.23785  -10.08274
      H1     2.17896   14.12933   -9.84862
       H    -6.81111   12.27769   -7.23741
       O    -7.50904   12.84339   -6.99211
      H1    -8.14258   12.84429   -7.78319
       H    -6.19546    9.35772   -9.67443
       O    -6.81803   10.04206  -10.04704
      H1    -7.65537    9.74210   -9.66268
       H    -2.43895   13.73536   -6.31490
       O    -2.16573   13.88405   -7.26344
      H1    -1.20649   14.06102   -7.19279
       H    -1.93830   14.86544  -11.11155
       O    -2.55566   15.59731  -10.99512
      H1    -2.50822   15.96047  -10.06160
       H    -3.92033   12.73893   -9.54951
       O    -3.62661   12.20022   -8.79397
      H1    -3.09060   12.86423   -8.28793
       H    -2.44163   15.76130   -7.98189
       O    -2.17920   16.51447   -8.53584
      H1    -2.62310   17.29568   -8.20000
       H    -9.75410   14.17619  -11.61081
       O    -8.87955   13.70891  -11.50737
      H1    -8.22234   14.33164  -11.28235
       H    -4.11551   19.81487   -8.47735
       O    -3.47712   19.09267   -8.36153
      H1    -2.97786   19.15729   -7.52868
       H     0.50346   16.21244   -7.95479
       O     0.61334   17.15449   -8.04187
      H1    -0.27106   17.51368   -8.29376

