111
frame 6 | Written by MDAnalysis XYZWriter (release 2.4.3)
       H    19.32479    3.33683    6.11230
       O    18.58728    2.96821    6.54457
      H1    17.72980    3.43490    6.31386
       H    17.67182    6.33562    5.08357
       O    18.55657    6.09081    5.33172
      H1    19.15936    6.66433    4.92716
       H    13.77583    4.89482    2.22049
       O    13.88033    4.24823    1.49769
      H1    14.21905    3.49117    2.00256
       H    15.72999    3.15469    7.52156
       O    15.86259    3.58670    6.64298
      H1    15.87415    4.55161    6.78360
       H    13.35962    9.27334    2.54354
       O    13.25578    8.49340    1.99515
      H1    13.63838    8.77456    1.12012
       H    19.13361    7.70332    8.08886
       O    18.95004    6.80031    7.99561
      H1    18.78582    6.67999    7.02293
       H    10.97225    3.93499   -1.94668
       O    11.47976    4.73662   -2.05610
      H1    12.41298    4.62082   -1.82405
       H    14.32131    2.84130    5.50795
       O    13.85530    2.40106    4.74979
      H1    13.35224    1.67516    5.10968
       H    16.65028    7.01983   -5.49399
       O    16.81152    6.77169   -4.56553
      H1    16.67998    5.80035   -4.51360
       H    12.85159    3.82295    4.34076
       O    12.38898    4.64638    4.66901
      H1    11.54599    4.73452    4.23668
       H    18.25736    2.88554    1.34792
       O    18.02686    3.34139    0.51971
      H1    18.76349    3.17371   -0.06497
       H    15.02659   -1.53033   -2.61231
       O    15.64918   -0.75882   -2.41649
      H1    15.26161   -0.31791   -1.64409
       H    14.54371    0.20036    0.44122
       O    14.39903    0.71051   -0.37103
      H1    14.95963    1.48498   -0.30014
       H    18.69561    9.68690    1.53438
       O    18.74223    9.66421    2.48430
      H1    19.32092    8.94491    2.72235
       H    15.96379    2.63430    3.33131
       O    16.56692    2.05714    2.86369
      H1    16.10713    1.28105    2.51919
       H    17.18538    9.72193    3.42291
       O    16.47330    9.77447    4.05972
      H1    16.21393    8.84029    4.14614
       H    19.00577   10.87967   -0.49742
       O    19.02045    9.94678   -0.31979
      H1    18.35811    9.55143   -1.01335
       H    10.89574    6.36703    1.62496
       O    11.02583    5.45776    1.39496
      H1    11.58325    5.46877    0.62909
       H    16.03825    6.92712    6.32317
       O    16.16215    7.11607    5.34598
      H1    15.38948    6.76593    4.83902
       H    18.71176   -0.08320    7.24859
       O    17.95189    0.44854    7.08550
      H1    18.31161    1.31035    6.80772
       H    12.25906    2.04458    1.05674
       O    11.58541    2.31309    1.67390
      H1    11.75040    3.24680    1.82662
       H    13.95208    6.97324    3.03922
       O    14.21869    6.15158    3.42882
      H1    13.57594    6.05898    4.15021
       H    16.72446    3.28810   -0.57999
       O    15.94558    2.99427   -1.09341
      H1    16.11440    3.25995   -2.00507
       H    17.03563    5.31656   -2.34166
       O    17.52913    5.96752   -1.85167
      H1    17.55389    6.80018   -2.39766
       H    15.98761    3.80930   -4.29642
       O    16.58936    4.07160   -3.59370
      H1    17.39754    3.99045   -4.04970
       H    15.31891   -1.53019    1.59390
       O    14.95816   -0.66826    1.89513
      H1    14.19621   -0.91538    2.38710
       H    13.81439    8.89357    6.26497
       O    14.57008    9.34036    6.72779
      H1    15.30256    9.24493    6.09410
       H    16.92179    4.66897    1.79933
       O    16.92904    5.30463    2.49293
      H1    17.58926    5.18555    3.16224
       H    17.82328    9.24882   -3.14141
       O    18.28624    8.37392   -2.98737
      H1    18.08902    7.83201   -3.71780
       H    16.50996    0.40474    6.00826
       O    15.80056    0.13356    5.45144
      H1    16.04871    0.75209    4.74046
       H    10.33831    8.76906    1.92302
       O    10.63283    7.96160    2.37912
      H1    11.59424    8.12019    2.27876
       H    15.29333    8.10071   -0.36272
       O    14.36037    8.13146   -0.51322
      H1    14.05309    7.38407   -1.01134
       H    10.79109    0.25210    3.92049
       O    11.58944    0.77087    3.89020
      H1    11.61461    1.21247    3.02708
       H    14.76917    6.52269    8.04634
       O    15.67317    6.24731    7.84538
      H1    16.03740    6.02406    8.70509
       H    14.68366   10.50702    3.36145
       O    13.80677   10.85582    3.54923
      H1    14.05896   11.71328    3.99671
       H    14.83695    4.49396   -1.12386
       O    14.12487    5.15111   -1.21920
      H1    13.87836    5.13694   -0.27220
       H    17.30843    6.82676    1.10407
       O    17.28746    7.48847    0.45392
      H1    17.26981    6.85824   -0.34977

