111
frame 4 | Written by MDAnalysis XYZWriter (release 2.4.3)
       H     5.96811   -4.99550  -14.80084
       O     6.54815   -4.27217  -14.41114
      H1     6.07739   -3.46247  -14.36304
       H    -3.32637   -2.07765  -17.28077
       O    -2.84670   -2.79398  -16.83456
      H1    -2.85589   -2.51937  -15.89520
       H     3.58269   -4.95043  -11.30791
       O     3.10382   -4.68182  -12.14645
      H1     2.17792   -5.08280  -12.08653
       H     6.11743    0.65753  -19.33787
       O     5.19110    0.67939  -19.03721
      H1     4.67945    1.07155  -19.77431
       H     2.35485   -4.46329  -19.65808
       O     2.35954   -5.29322  -19.12083
      H1     2.80519   -5.87758  -19.78054
       H     8.13678   -0.82778  -19.17418
       O     7.93163   -0.86182  -18.22795
      H1     8.47561   -1.60980  -17.92350
       H     5.16891   -5.12196  -17.86791
       O     5.90408   -5.72508  -17.83917
      H1     6.76713   -5.24920  -17.75207
       H     2.25469    2.72604  -14.34204
       O     1.44957    3.17558  -14.04412
      H1     0.85183    2.42569  -13.85772
       H    -2.75228   -1.13055  -15.00199
       O    -2.63729   -1.82669  -14.40430
      H1    -2.47231   -1.37247  -13.52749
       H     0.40882    3.14781  -17.82690
       O     1.08983    3.09436  -18.58717
      H1     1.51587    3.93179  -18.75546
       H     4.97795    0.65097   -9.52005
       O     5.54997    0.79598  -10.27932
      H1     4.93217    1.07700  -11.03141
       H     6.30841    3.27641  -12.83440
       O     6.39329    2.61178  -13.54691
      H1     7.22224    2.14066  -13.38500
       H     1.51384   -0.60865  -16.10555
       O     1.78500   -0.69820  -17.04594
      H1     2.26144    0.12962  -17.23633
       H     4.40575   -1.48045  -13.30946
       O     5.37066   -1.64820  -13.54752
      H1     5.43720   -1.05494  -14.33333
       H     2.62810   -1.14042  -11.66160
       O     2.96324   -1.77138  -12.30018
      H1     3.09320   -2.61388  -11.90205
       H    -0.12486    0.36711  -14.27291
       O    -0.57919    1.15840  -14.02287
      H1    -1.08373    1.00711  -13.19589
       H     0.68696    0.27728   -9.84356
       O     1.40230    0.15997  -10.45422
      H1     1.95860    0.94426  -10.48913
       H     5.59478    0.74686  -16.73041
       O     5.99306    0.10498  -16.15094
      H1     6.70922   -0.29643  -16.68184
       H     4.43875   -8.40681  -16.44139
       O     5.06836   -8.17677  -17.10279
      H1     5.23803   -7.18673  -17.19608
       H     4.71664    1.84747  -13.00010
       O     4.12669    1.37054  -12.38990
      H1     3.58853    2.08262  -12.00877
       H    -1.33977    3.23719  -16.36284
       O    -0.46618    3.64637  -16.45342
      H1    -0.03099    3.47932  -15.60474
       H     1.94714   -0.73741  -14.07579
       O     1.14736   -1.08137  -14.45813
      H1     0.74974   -1.80294  -13.95585
       H    -1.49459   -0.01557  -16.74579
       O    -2.08294    0.50359  -16.16096
      H1    -1.58712    0.81323  -15.39747
       H     0.29586   -0.82707  -17.80600
       O    -0.62878   -1.13372  -18.02481
      H1    -0.72112   -2.07691  -17.87738
       H     9.46013   -2.28144  -15.40690
       O     8.68421   -2.65526  -15.92782
      H1     8.20039   -3.32643  -15.49806
       H     5.00547    4.27187  -17.02156
       O     4.11290    4.17879  -16.60702
      H1     3.49101    4.57128  -17.22764
       H     3.73536   -5.72740  -13.56254
       O     4.21948   -6.09007  -14.29868
      H1     3.89154   -5.52016  -15.01325
       H     1.40350   -3.49008  -12.89170
       O     0.45740   -3.34081  -13.07570
      H1     0.29595   -3.98862  -13.74222
       H     4.15317    0.81529  -15.13515
       O     3.51481    1.49038  -15.19600
      H1     3.84583    2.19541  -15.75926
       H    -0.56624   -6.79830  -18.84701
       O    -0.79693   -6.00543  -18.30523
      H1    -0.05383   -5.40685  -18.39573
       H     2.92872   -3.74030  -16.38588
       O     2.98299   -4.69479  -16.39244
      H1     3.00154   -4.90747  -17.33518
       H     6.93563   -0.58014  -10.95863
       O     7.40731   -0.99794  -11.70770
      H1     6.67252   -1.31511  -12.34774
       H     3.16987   -1.38283  -16.67262
       O     3.93164   -1.91525  -16.38762
      H1     4.76141   -1.35336  -16.45837
       H     0.04491   -6.14395  -14.47540
       O     0.80446   -5.56017  -14.60027
      H1     1.23687   -5.66253  -15.42624
       H     3.98812    4.75790  -14.87504
       O     4.26139    5.28754  -14.12530
      H1     4.80906    6.00942  -14.48487
       H     8.27843   -3.74006  -17.40322
       O     8.13702   -4.45039  -18.05878
      H1     8.30208   -4.10496  -18.94872
       H     4.43608   -2.43026  -18.39150
       O     4.27828   -1.91796  -19.20539
      H1     4.57430   -1.00300  -19.07640

