111
frame 0 | Written by MDAnalysis XYZWriter (release 2.4.3)
       H     8.27692    4.74388   -9.44000
       O     9.27072    4.66314   -9.36631
      H1     9.30855    4.01575   -8.60508
       H     3.38967    3.06920  -10.86298
       O     4.08866    2.40505  -10.64528
      H1     4.47192    2.68956   -9.79761
       H     0.88054    3.53161   -8.30953
       O     1.16548    4.48194   -8.10110
      H1     0.33452    4.98713   -8.09328
       H    -0.15768    1.64395   -7.99827
       O     0.64512    1.91258   -8.53220
      H1     0.41658    1.65346   -9.43955
       H     3.80373    7.65959   -5.57332
       O     3.23440    8.48061   -5.80091
      H1     2.45258    8.15942   -6.25435
       H     0.56350    6.88610  -10.07217
       O     0.23037    6.02115  -10.34305
      H1     1.04888    5.47026  -10.44092
       H    10.36748    2.30015   -7.12900
       O     9.52943    2.84197   -7.28915
      H1     8.90804    2.11606   -7.37789
       H     4.28764    6.36725   -4.02789
       O     4.10038    6.01321   -4.90994
      H1     3.17758    5.69974   -4.91149
       H     4.78406    1.16932   -3.80987
       O     4.71517    0.34141   -3.25056
      H1     5.15136    0.54026   -2.42527
       H     5.57529    3.81255   -7.32618
       O     5.22973    3.24736   -8.03109
      H1     4.63183    2.64713   -7.61328
       H     6.06917    0.23548   -9.69814
       O     6.65131   -0.08158  -10.41274
      H1     6.57180    0.65260  -11.02546
       H     1.37027    4.49834   -6.38009
       O     1.49186    4.77604   -5.44912
      H1     0.96386    5.60101   -5.38317
       H     3.13009    5.21894  -10.25189
       O     2.61139    4.76522  -10.94538
      H1     2.96645    5.11733  -11.77313
       H    -0.08846    1.09595   -5.05057
       O    -0.16357    0.83648   -5.98455
      H1     0.25696   -0.00889   -5.98515
       H     5.54546    2.47905  -11.63239
       O     6.36628    2.17936  -12.09294
      H1     7.04083    2.87583  -12.09402
       H     6.43762    6.37752   -9.07111
       O     6.53382    5.58757   -9.69434
      H1     6.18346    5.75741  -10.61064
       H    10.29168    7.14355   -7.61679
       O     9.51261    7.07337   -8.17395
      H1     9.41905    6.13088   -8.40029
       H     9.37042    1.74444   -4.37831
       O     9.74424    0.80860   -4.13545
      H1    10.65346    1.09574   -3.99796
       H     8.81484    4.16740  -12.54489
       O     8.71128    3.51358  -11.82167
      H1     9.26521    3.85636  -11.04867
       H     3.50897   -0.17962   -4.49754
       O     2.67288   -0.32068   -4.98696
      H1     2.47143   -1.26056   -4.98365
       H     3.34187    0.56958  -10.88849
       O     2.74373   -0.16973  -11.05170
      H1     2.70527   -0.18760  -12.02980
       H     5.62140    5.07163   -5.54459
       O     6.30411    4.74571   -6.12538
      H1     6.89963    4.17833   -5.62336
       H     7.26012    0.93793   -9.01309
       O     7.22955    1.27363   -8.11259
      H1     6.59465    2.02149   -8.14881
       H     1.39156    1.83198   -3.00229
       O     1.07537    0.96253   -3.36315
      H1     1.89463    0.67046   -3.91054
       H     5.42909    7.06687   -7.33814
       O     6.12264    7.42055   -7.86375
      H1     5.86203    8.34544   -7.79265
       H     6.96254    3.28759   -2.86326
       O     7.16604    3.36123   -1.95148
      H1     7.88215    2.73528   -1.82960
       H     2.96280    0.93660   -6.51873
       O     3.38153    1.41116   -7.25167
      H1     2.64338    1.61259   -7.85922
       H     3.72964    8.81977   -9.72603
       O     3.42323    8.78219   -8.79856
      H1     3.69464    7.88006   -8.62954
       H     4.52151   -3.53713   -6.84565
       O     5.12846   -2.90137   -7.26253
      H1     5.26759   -2.30374   -6.50297
       H    -0.12894   -0.83977   -9.55246
       O     0.42487   -1.56375   -9.72718
      H1     1.10034   -1.25965  -10.33526
       H     3.33586    2.94177   -5.06412
       O     3.84145    2.84073   -4.24924
      H1     3.35625    3.00688   -3.37806
       H     5.24589   -0.85225   -4.46301
       O     5.61998   -1.65903   -4.91213
      H1     6.49413   -1.75650   -4.59728
       H     5.94601   -1.69265  -11.46523
       O     6.17263   -2.52851  -11.96620
      H1     5.28095   -2.83886  -12.20171
       H     9.30689    3.26246   -5.59785
       O     8.86448    3.33926   -4.71757
      H1     9.39984    3.85844   -4.09190
       H     4.37484    4.80514   -8.44767
       O     3.76684    5.56658   -8.56593
      H1     2.92157    5.16309   -8.32981
       H    -0.23140    3.68526   -4.93331
       O    -1.12073    3.74995   -4.53453
      H1    -0.88441    4.21190   -3.67906
       H     4.39083   -2.86918   -9.26407
       O     3.84264   -2.62892  -10.00447
      H1     3.36891   -1.80334   -9.75736

