111
frame 2 | Written by MDAnalysis XYZWriter (release 2.4.3)
       H   -15.22506   12.14813    1.67056
       O   -15.98535   12.50688    2.22353
      H1   -16.11318   13.39791    1.91837
       H   -10.35119   10.39746    1.07138
       O   -11.10311   10.42884    1.66307
      H1   -11.73392   11.05016    1.32001
       H   -16.33669    7.76162    9.98920
       O   -16.67964    7.11527   10.64686
      H1   -17.61113    7.04605   10.41817
       H   -18.54499   12.61954    5.14461
       O   -18.52933   12.24167    6.02631
      H1   -18.87041   12.94763    6.59427
       H   -10.38729    7.77130    8.26222
       O    -9.70234    7.74949    8.93327
      H1    -9.98975    7.05509    9.50084
       H   -11.68750   10.64192    9.37890
       O   -12.51005   10.86257    8.93765
      H1   -12.66282   11.69624    9.37495
       H   -12.62089    8.06581   11.80645
       O   -12.60396    8.34253   10.87023
      H1   -13.49846    8.53804   10.61985
       H   -14.19732    8.90561    8.89292
       O   -15.05477    8.96577    9.31895
      H1   -15.25421    9.93829    9.40124
       H   -16.40421    9.23503    8.02482
       O   -16.85534    9.27948    7.12063
      H1   -16.76873   10.23892    6.94197
       H    -9.91695    6.63847    4.83251
       O    -9.02478    6.51718    4.43997
      H1    -8.46052    6.47383    5.24875
       H    -8.20210   12.25474    7.04633
       O    -7.57017   12.95349    7.09903
      H1    -7.82907   13.74779    6.61398
       H   -13.25111   16.43398    8.14037
       O   -12.94370   17.24128    8.50812
      H1   -12.32891   16.98762    9.18990
       H   -11.44264    7.22713    6.82831
       O   -10.93473    7.95436    6.40138
      H1   -11.61322    8.46200    5.88685
       H   -13.82063   11.21908   13.36902
       O   -13.69592   10.93879   12.43737
      H1   -14.16535   10.09152   12.56284
       H   -11.75633   13.85553   11.42447
       O   -12.49084   14.53283   11.47296
      H1   -12.85678   14.28936   12.36364
       H   -13.99259   14.45513    7.04758
       O   -14.33116   15.35816    7.13440
      H1   -15.14215   15.15452    7.63142
       H   -13.50946   13.76270   10.05506
       O   -14.06099   13.35804    9.34905
      H1   -14.75749   12.75641    9.74209
       H   -12.40983    7.54626    4.09174
       O   -12.07530    6.63744    4.18580
      H1   -12.63734    6.25120    4.96000
       H   -10.10142   12.11271   10.57898
       O   -10.83050   12.68494   10.38056
      H1   -10.68265   13.06831    9.47650
       H   -13.00230    9.15230    1.57258
       O   -13.50243    8.32286    1.39816
      H1   -12.77166    7.79256    1.03022
       H    -7.68467    5.75339    7.24002
       O    -7.65028    6.69538    7.18434
      H1    -8.43520    7.01864    7.66800
       H    -9.40438   16.22383    7.47021
       O    -9.77291   15.62541    6.81796
      H1    -9.31703   15.76836    5.94301
       H    -9.59271   13.06418    3.19327
       O    -9.06651   13.74630    2.68255
      H1    -9.66214   14.20052    2.08106
       H   -10.33607   11.16263    3.29461
       O   -10.42869   11.90720    3.98258
      H1   -10.21950   11.49861    4.81582
       H   -17.47260    7.44712    6.88782
       O   -17.81820    6.66879    7.27959
      H1   -18.35511    6.30255    6.55585
       H   -15.31179   12.27344    7.06551
       O   -16.20832   12.42669    7.46789
      H1   -16.82300   12.45526    6.68081
       H   -14.95124    5.30543    6.15749
       O   -14.11047    5.52188    5.66116
      H1   -14.46824    5.89792    4.83335
       H   -13.18919    9.81256    4.41889
       O   -12.36422    9.29290    4.46052
      H1   -11.80341    9.63001    3.76414
       H   -17.16130   14.57142    8.51566
       O   -16.78237   15.43539    8.79299
      H1   -16.00733   15.25526    9.34405
       H   -12.56603   12.25014    6.08932
       O   -13.33230   11.90113    6.51416
      H1   -12.90386   11.38692    7.17976
       H    -7.63899   13.23671    8.93940
       O    -7.64053   13.10572    9.91730
      H1    -7.18065   12.21785    9.98828
       H   -10.52713   11.43013    7.01450
       O    -9.80348   10.94197    6.58469
      H1   -10.22478   10.12161    6.29181
       H    -9.79240    9.44863   10.42521
       O   -10.37146   10.02469   10.96303
      H1   -11.25585    9.53108   11.07367
       H    -7.16860    9.18603    4.67774
       O    -7.81483    9.97169    4.71540
      H1    -8.20480    9.72114    5.53402
       H   -13.20508    6.36164    7.41342
       O   -12.74006    6.71648    8.15577
      H1   -12.91343    6.09432    8.90422
       H   -12.02874   13.65978    7.65029
       O   -11.05930   13.47557    7.73445
      H1   -10.55794   14.29049    7.52375
       H   -16.29599   11.71210   10.66165
       O   -15.93385   11.39798    9.86294
      H1   -16.37200   11.77158    9.06930

