111
frame 5 | Written by MDAnalysis XYZWriter (release 2.4.3)
       H    -6.76764    8.84225  -17.86599
       O    -7.56562    9.11274  -17.44319
      H1    -7.84526    8.49001  -16.76719
       H    -6.56101    5.13635  -18.84948
       O    -5.92297    5.65021  -18.26095
      H1    -5.07513    5.26020  -18.39484
       H   -10.21820   10.02004  -11.74074
       O    -9.53155    9.58925  -12.27144
      H1    -9.89979    8.70889  -12.40012
       H    -7.15537   11.17837  -12.29451
       O    -7.25064   12.18214  -12.27589
      H1    -8.13262   12.32681  -11.86001
       H    -4.76158   14.55010  -15.52600
       O    -3.90662   14.99115  -15.70955
      H1    -4.00382   15.27321  -16.62153
       H   -11.40232    7.30159  -18.12207
       O   -10.65780    6.70184  -17.89906
      H1   -10.07045    6.97049  -18.60337
       H    -3.61428   16.64729  -18.81491
       O    -3.47622   15.87480  -18.25603
      H1    -4.07969   15.16816  -18.47698
       H    -6.47419   11.89195  -16.45793
       O    -6.13436   11.42917  -15.69821
      H1    -6.48825   10.53229  -15.59532
       H   -12.89404    7.74495  -16.55191
       O   -12.98646    8.05973  -17.44124
      H1   -13.22139    8.96697  -17.31504
       H    -5.60368    7.19319  -18.42399
       O    -5.43729    8.09355  -18.69041
      H1    -4.84909    8.66399  -18.15416
       H    -6.92948    7.18340  -14.33181
       O    -6.27090    6.73222  -13.80529
      H1    -5.82998    6.22585  -14.47520
       H    -2.37251    7.41717  -16.87776
       O    -3.04057    7.74777  -16.27289
      H1    -3.19541    8.67931  -16.36543
       H   -11.44976   15.38415  -14.45864
       O   -11.01674   14.51614  -14.16864
      H1   -10.30798   14.60759  -14.79275
       H    -6.42726   17.86661  -18.54148
       O    -6.49084   18.62387  -17.91542
      H1    -6.61472   19.38946  -18.47525
       H   -15.85344   10.62182  -18.69725
       O   -16.67844   10.42273  -18.28219
      H1   -16.41310    9.64830  -17.70349
       H   -12.68114   13.41228  -14.17372
       O   -13.55365   12.95569  -14.25244
      H1   -13.69662   12.76793  -15.20587
       H    -6.68006    8.75548  -11.90800
       O    -6.89350    9.38865  -12.62329
      H1    -7.88970    9.34478  -12.66132
       H    -4.06512    9.88206  -13.75897
       O    -3.89744   10.84440  -13.71118
      H1    -4.67342   11.21682  -14.16285
       H   -10.05217   10.07557  -14.23715
       O   -10.42130    9.66048  -15.03043
      H1   -11.18373    9.15393  -14.73035
       H    -6.86824   18.42632  -16.20046
       O    -7.12063   18.21346  -15.27232
      H1    -7.98041   18.67968  -15.13083
       H   -12.29136   16.31017  -17.86399
       O   -11.55346   15.85858  -17.45901
      H1   -11.57999   14.92761  -17.69205
       H   -11.41381   12.55633  -18.96757
       O   -11.99815   13.28506  -18.81121
      H1   -12.15706   13.61678  -19.69886
       H    -8.01293   16.57952  -15.80139
       O    -8.52184   15.78216  -15.66679
      H1    -7.94722   15.18878  -15.03803
       H   -10.56859   11.03641  -16.83244
       O   -10.92981   11.07732  -17.74659
      H1   -11.90393   10.97765  -17.66566
       H    -7.64388   12.98655  -18.26157
       O    -6.96637   13.38646  -17.62706
      H1    -7.34837   14.16443  -17.29917
       H   -10.21139   16.26763  -18.65930
       O    -9.61343   16.57623  -19.34256
      H1   -10.20124   17.16880  -19.89454
       H    -1.43569   12.95176  -15.75017
       O    -1.96588   13.08062  -16.56988
      H1    -2.61771   13.72722  -16.31639
       H    -6.30141   13.55214  -13.55850
       O    -6.25607   14.40424  -14.01945
      H1    -6.50288   15.12519  -13.43157
       H    -9.09290    8.17546  -14.95397
       O    -8.58252    7.47984  -15.38683
      H1    -9.17317    6.81798  -15.81962
       H   -11.39384   16.96629  -15.44275
       O   -11.90789   17.23325  -14.68046
      H1   -12.82881   17.19912  -14.94670
       H   -13.47013   13.41770  -17.87388
       O   -14.07807   13.19144  -17.15596
      H1   -14.99272   13.38498  -17.50287
       H   -13.84581   11.43114  -16.79963
       O   -13.45126   10.63943  -16.39603
      H1   -12.62935   10.93120  -15.97406
       H    -8.09903   12.17114  -15.00579
       O    -8.99061   12.49059  -15.10285
      H1    -9.36435   12.57877  -14.24823
       H    -9.20770   11.85502  -18.79827
       O    -8.60141   12.30581  -19.40971
      H1    -8.16924   11.46559  -19.74702
       H    -9.55278   19.43530  -16.42556
       O    -9.38343   19.79115  -17.32000
      H1    -8.60727   19.29832  -17.62943
       H    -3.26747   10.92627  -17.01277
       O    -4.01410   10.30960  -17.04504
      H1    -4.75204   10.81222  -16.70847
       H    -5.71160   14.99307  -19.88106
       O    -5.33723   14.17472  -19.55584
      H1    -6.07512   13.87484  -18.97107

