111
frame 6 | Written by MDAnalysis XYZWriter (release 2.4.3)
       H     2.55365   10.37333   -1.78925
       O     2.47719    9.67279   -2.44343
      H1     2.65349    8.79704   -2.10247
       H    -1.98572    4.06098    0.33345
       O    -1.33322    3.82851   -0.36980
      H1    -1.40901    2.86245   -0.28637
       H     1.94593    3.71241    2.02912
       O     1.66143    4.32071    2.74876
      H1     1.56670    5.13361    2.31578
       H     6.30525   11.26755   -1.19660
       O     5.49652   10.72442   -1.19827
      H1     5.24401   10.65618   -2.15208
       H     0.02327    5.27256    4.40393
       O     0.40275    5.92047    5.03951
      H1     1.38244    5.80017    5.07309
       H     2.75337    5.24448    0.01467
       O     3.06630    4.35615   -0.15558
      H1     2.44702    3.67654   -0.19663
       H    -2.72857    7.64498   -0.28372
       O    -3.38877    7.02991    0.04399
      H1    -3.63209    6.54129   -0.72373
       H     2.78571    6.40498    6.40142
       O     3.07520    6.15073    5.53136
      H1     3.82523    5.51599    5.75384
       H     2.79991   12.55820   -0.48935
       O     3.01450   11.65609   -0.60843
      H1     3.97771   11.64634   -0.81205
       H    -3.25651    5.83638    1.30463
       O    -3.31456    4.94087    1.68642
      H1    -2.63764    4.90024    2.41765
       H     0.64428    7.48215    0.45503
       O     1.44531    7.05793    0.77207
      H1     2.03400    7.74977    1.14701
       H     6.18096    2.90194    0.43378
       O     6.56062    3.55619   -0.19195
      H1     5.79880    3.98619   -0.51441
       H    -2.10949    6.61085   -3.14188
       O    -1.33925    6.01137   -3.04347
      H1    -1.56447    5.64902   -2.17570
       H     1.60721    9.20548    5.28758
       O     2.30213    9.31539    5.96839
      H1     2.26841   10.25455    6.12549
       H    -3.69694    8.38687    1.67898
       O    -4.03808    8.93547    2.42129
      H1    -4.43120    9.66884    1.97522
       H     1.75375    4.35083   -3.09573
       O     1.76267    3.37801   -2.91124
      H1     2.22328    3.31784   -2.07843
       H    -1.84716   11.21024   -1.25558
       O    -1.99516   11.23274   -2.24961
      H1    -2.90581   11.18440   -2.34549
       H     2.45703    7.10593   -0.61975
       O     2.94808    7.15246   -1.47894
      H1     2.37764    6.71953   -2.17877
       H     7.86493    6.04905    4.09918
       O     6.96661    5.92898    3.77803
      H1     6.99419    6.01295    2.76970
       H     4.85402    8.36714    0.17494
       O     5.78253    8.45365    0.18262
      H1     5.99138    9.37532    0.00762
       H    -1.46184    3.75222    3.63359
       O    -1.67823    4.67216    3.59856
      H1    -2.34074    4.89675    4.27876
       H     4.29569   11.65502   -4.00000
       O     4.51801   10.76811   -3.68851
      H1     3.61929   10.55037   -3.34824
       H     3.68313    8.51323    2.76736
       O     2.97206    8.87438    2.20709
      H1     3.00226    9.86547    2.38517
       H    -0.73078    9.38866    2.95981
       O    -1.52819    9.94867    2.68625
      H1    -2.27222    9.41837    2.96212
       H    -1.06833   11.76903    4.89569
       O    -0.94707   12.32333    4.13278
      H1    -1.19501   11.70394    3.45142
       H     5.37921   11.32540    3.23389
       O     5.89064   10.83029    3.88779
      H1     5.41996   10.00001    4.06587
       H    -0.80397   11.19836    0.94113
       O    -0.42902   11.50450    0.08094
      H1     0.06437   12.31274    0.27035
       H     2.12668    6.23556   -4.24706
       O     1.51967    6.04545   -3.50965
      H1     0.68674    6.21657   -3.96321
       H    -0.74004    9.35309    0.08217
       O    -0.85038    8.48763   -0.28661
      H1    -0.54099    8.58967   -1.21656
       H     2.34393   12.25754    2.61895
       O     2.94356   11.65941    2.12337
      H1     2.65707   11.70826    1.18839
       H     4.48232    5.69997   -1.28629
       O     5.26807    5.46035   -1.87127
      H1     5.77855    6.25542   -1.94146
       H     6.21754    8.21589   -1.70154
       O     6.72826    7.83592   -2.44962
      H1     6.43780    8.09233   -3.30933
       H     1.52879    8.43727    3.17551
       O     0.73115    8.53769    3.73524
      H1     0.58496    7.63106    3.99998
       H     1.59732   12.22324   -2.35534
       O     0.80999   12.78092   -2.55648
      H1     0.07444   12.23783   -2.22331
       H     4.12969    8.12866    4.68567
       O     4.69393    8.12652    3.89065
      H1     5.40075    7.44114    4.04742
       H     0.42125    9.64604   -3.09196
       O    -0.51715    9.35591   -3.16494
      H1    -1.01870   10.19667   -2.99430
       H     5.53604   13.09717    2.07972
       O     4.91577   13.41540    2.78032
      H1     4.04551   12.94530    2.60165

