111
frame 5 | Written by MDAnalysis XYZWriter (release 2.4.3)
       H     8.78960  -13.04580    0.06606
       O     8.04192  -13.04783   -0.55537
      H1     7.73916  -12.15951   -0.37400
       H    12.24008  -14.87250   -2.08655
       O    12.19579  -15.17384   -3.01578
      H1    12.88376  -15.78951   -3.10326
       H     2.78459  -10.95036   -4.47822
       O     1.87237  -10.93669   -4.66200
      H1     1.36540  -11.39065   -3.97168
       H     8.90684  -16.86320    0.17532
       O     9.41736  -16.42757    0.85136
      H1     9.05027  -16.73141    1.66525
       H     1.72934  -14.08877    2.24661
       O     2.41367  -14.46667    2.80945
      H1     2.93427  -14.87399    2.15791
       H     6.87825  -14.10201   -2.08738
       O     6.70538  -14.28367   -3.03814
      H1     7.53516  -14.09615   -3.51492
       H     6.44371  -10.14634   -0.52186
       O     7.29854  -10.36581   -0.99523
      H1     7.45805   -9.56273   -1.53648
       H     9.15120  -17.41683   -1.77143
       O     8.26458  -17.63676   -1.42759
      H1     7.67981  -17.32497   -2.09283
       H     5.53675  -12.96913   -3.38004
       O     4.70045  -12.56136   -3.43656
      H1     4.00073  -13.19492   -3.56506
       H     8.63479  -12.29779    3.85865
       O     8.02995  -13.04789    4.00822
      H1     7.88120  -13.35733    3.11552
       H     5.82505  -16.54930   -5.75644
       O     5.34380  -17.35377   -5.58640
      H1     4.46712  -17.07974   -5.67992
       H     1.73856  -14.86534    0.17861
       O     1.35814  -13.98553    0.18551
      H1     1.94735  -13.42439   -0.37744
       H     8.70939   -8.34051    1.28949
       O     8.52920   -9.26071    1.44504
      H1     8.28377   -9.59052    0.57912
       H    12.72595  -13.24029   -0.35300
       O    11.87425  -13.65384   -0.58810
      H1    11.97609  -14.55283   -0.20716
       H     5.60918  -12.38047   -7.21407
       O     6.52799  -12.68092   -7.25622
      H1     7.11229  -11.93739   -7.07150
       H     5.31150  -16.47579    0.96278
       O     4.82820  -15.93790    1.60104
      H1     5.56647  -15.33166    1.73359
       H     8.25793  -15.01121    1.44059
       O     7.34720  -14.59886    1.43581
      H1     7.26011  -13.90403    0.67800
       H     6.58957  -14.34173   -6.49164
       O     6.97818  -15.22306   -6.35677
      H1     7.36827  -15.48581   -7.18192
       H     5.45338   -9.25380   -4.39245
       O     5.23055  -10.08714   -4.84458
      H1     5.18051  -10.82350   -4.24511
       H     6.43977  -16.05020   -3.12801
       O     6.29148  -16.96694   -2.91245
      H1     6.00610  -17.40907   -3.69695
       H     9.53621  -17.14323   -6.17425
       O    10.13900  -16.46062   -5.87572
      H1     9.58625  -15.66841   -5.70461
       H     9.06024  -11.01407   -6.17663
       O     9.82103  -11.57736   -6.04748
      H1     9.78487  -12.10827   -6.90462
       H     5.50327  -18.93399   -0.52475
       O     5.96277  -18.26261    0.03879
      H1     6.57889  -17.84710   -0.56718
       H    11.41492  -18.28417   -2.50191
       O    10.95764  -17.57372   -2.10055
      H1    11.32442  -16.76668   -2.48717
       H    12.67597  -13.53090   -3.77457
       O    13.18439  -12.80936   -4.12392
      H1    13.95071  -12.53960   -3.55503
       H    11.98701  -16.78180   -0.54197
       O    12.05996  -16.13515    0.14192
      H1    11.17648  -16.05953    0.59125
       H     3.47208  -16.75023   -1.52865
       O     3.75686  -16.51819   -2.45947
      H1     4.72292  -16.60756   -2.61307
       H     6.58405  -10.27315   -5.74807
       O     7.46635  -10.27680   -6.21859
      H1     7.49282   -9.61471   -6.96703
       H     3.00720  -15.27935   -3.44401
       O     2.92322  -14.55670   -4.06103
      H1     2.16801  -14.08175   -3.79668
       H     1.96024  -17.06845    0.91121
       O     2.58358  -16.52957    0.32397
      H1     3.37728  -16.35615    0.86996
       H     3.20159  -15.46550   -7.16429
       O     2.85834  -16.03967   -6.46056
      H1     2.76292  -15.43554   -5.66288
       H     2.30705  -11.22769   -1.13477
       O     2.97135  -11.91493   -1.07046
      H1     3.40138  -12.10741   -1.91550
       H    10.19748  -12.14026    1.86648
       O    10.15236  -12.95479    1.31518
      H1    10.89565  -12.94955    0.64450
       H     8.15286  -14.41059   -5.39879
       O     8.92575  -14.02649   -4.89644
      H1     9.24215  -13.16434   -5.31062
       H     9.69280  -11.72778   -2.00912
       O    10.04594  -10.82221   -1.89225
      H1    10.52404  -10.72176   -2.73503
       H     9.10474   -9.35349   -2.11829
       O     8.76524   -8.46253   -2.50026
      H1     9.23581   -8.31591   -3.32347
       H     5.09196   -9.87053    1.08341
       O     4.74998   -9.78669    0.19903
      H1     4.45052  -10.69639   -0.07508

