111
frame 1 | Written by MDAnalysis XYZWriter (release 2.4.3)
       H    17.90686   -9.35618  -10.01333
       O    17.33807   -9.45286   -9.24603
      H1    17.76670   -8.79609   -8.65653
       H     8.09434   -5.83421  -14.46985
       O     8.67223   -6.47278  -14.01580
      H1     8.66330   -6.15790  -13.08174
       H    10.51283   -7.25921  -16.32358
       O    10.52293   -7.55275  -17.22226
      H1    10.36277   -6.74044  -17.78835
       H    10.65682   -8.84649  -11.46716
       O     9.77956   -8.51856  -11.37366
      H1     9.85589   -7.60920  -11.19112
       H    10.74042   -5.95507   -9.72761
       O    11.34610   -5.86475   -9.00647
      H1    11.43705   -6.64063   -8.47852
       H    16.78651   -3.13183  -12.93825
       O    16.82756   -3.83027  -12.27964
      H1    16.07491   -4.41689  -12.45125
       H    13.93381   -5.39810  -12.66076
       O    14.29062   -5.08429  -13.43177
      H1    13.50842   -4.78390  -14.02615
       H    11.92739   -4.07745  -14.81698
       O    12.19891   -4.78285  -15.37630
      H1    11.88590   -5.58904  -14.88790
       H    13.63321  -12.22181  -11.05001
       O    13.16021  -12.13326  -10.17451
      H1    13.53119  -11.23812   -9.87199
       H    10.00747   -2.73452  -11.91233
       O    10.36182   -3.49328  -12.35474
      H1    10.26109   -3.28361  -13.32072
       H    11.34393  -10.89259   -6.76008
       O    12.26032  -11.25785   -6.72396
      H1    12.76315  -10.74356   -7.38795
       H    12.48060   -8.21192  -16.92083
       O    13.11083   -8.90811  -17.22461
      H1    13.34598   -8.58890  -18.12136
       H    13.19654   -1.36949  -11.28976
       O    12.59030   -1.52158  -10.45811
      H1    11.65576   -1.35256  -10.66691
       H    13.33208   -8.62557   -8.78154
       O    12.82014   -8.47571   -8.01263
      H1    13.45771   -8.36970   -7.31796
       H    10.66558   -4.54502   -8.14177
       O    10.25255   -3.92774   -7.54211
      H1     9.34942   -4.17907   -7.52461
       H    15.19797   -5.38212   -8.57059
       O    14.78203   -4.91234   -7.80264
      H1    14.63996   -4.01769   -8.13770
       H    20.14157   -4.23986  -11.14319
       O    19.53115   -4.81604  -11.61762
      H1    18.77485   -4.26554  -11.76165
       H    14.46809   -8.96969   -5.61153
       O    14.86458   -8.42395   -6.34419
      H1    14.50673   -7.49228   -6.23413
       H    11.97054  -11.22495  -11.09539
       O    11.52934  -10.78366  -11.87435
      H1    12.19599  -10.12219  -12.12216
       H    15.50251   -8.34989  -15.19156
       O    15.35608   -9.00048  -14.43508
      H1    15.02216   -9.80617  -14.87582
       H    13.27587  -11.15268  -15.09115
       O    14.22980  -11.31072  -14.92736
      H1    14.40679  -12.23754  -15.07326
       H    16.37748   -6.74718  -10.17630
       O    15.52928   -7.18552   -9.96149
      H1    15.80223   -8.11941   -9.86934
       H    13.48179   -7.83433  -12.18898
       O    13.25739   -8.66528  -12.66542
      H1    13.89999   -8.58879  -13.38912
       H    18.24791   -6.36488   -8.95428
       O    18.33310   -6.72887   -9.83529
      H1    18.74783   -6.13198  -10.47869
       H    19.32034  -10.01305  -12.97252
       O    18.81751   -9.25296  -12.75207
      H1    17.89816   -9.62024  -12.63802
       H    11.80973   -7.48121  -13.69104
       O    11.33185   -7.16701  -14.47646
      H1    10.44026   -6.99947  -14.09225
       H    14.14687   -6.79010  -10.75019
       O    13.30395   -6.50153  -11.11878
      H1    12.83700   -6.17672  -10.35317
       H    14.60313   -7.98387  -16.90153
       O    15.38538   -7.53869  -16.73246
      H1    15.16598   -6.59965  -16.88197
       H    15.38445   -9.83158   -9.28132
       O    14.60640   -9.82672   -9.86347
      H1    14.93342  -10.02880  -10.75514
       H    17.32050   -4.77294  -16.59810
       O    16.36555   -4.90540  -16.38165
      H1    16.33661   -5.09667  -15.44333
       H    16.50841   -8.32101   -6.44902
       O    17.48098   -8.12265   -6.60134
      H1    17.94183   -8.21440   -5.76815
       H    15.52979   -1.16406  -13.15385
       O    14.84141   -0.95262  -12.51320
      H1    14.70312    0.01204  -12.51851
       H    13.69473   -5.52419   -6.69682
       O    13.32825   -6.17761   -6.10311
      H1    12.44553   -6.32925   -6.40331
       H     8.38739   -9.88312  -11.99052
       O     7.78922  -10.43464  -12.43425
      H1     8.08491  -11.37129  -12.27895
       H     9.91282   -5.10156  -11.70876
       O     9.47720   -5.75840  -11.17823
      H1     8.63528   -5.39508  -10.83338
       H    14.86995   -3.28065  -10.36707
       O    14.79757   -2.86029   -9.52442
      H1    13.89146   -2.46953   -9.64846
       H    16.48972  -11.18690  -12.10605
       O    16.25613  -10.23895  -12.04708
      H1    15.75704  -10.07161  -12.83504

