111
frame 8 | Written by MDAnalysis XYZWriter (release 2.4.3)
       H    -2.90585    3.43304   -2.59405
       O    -3.44754    3.09257   -3.34851
      H1    -4.33726    3.34898   -3.19042
       H    -5.14955    6.49433   -7.32589
       O    -5.21586    5.64359   -6.82081
      H1    -6.05951    5.69761   -6.44169
       H     2.86099    4.60521  -10.92577
       O     3.30820    3.80924  -10.63327
      H1     3.63372    4.06159   -9.78606
       H    -0.44565    8.03912   -5.31715
       O    -1.02747    7.80256   -6.06959
      H1    -1.35683    8.72102   -6.24644
       H    -0.43340    5.09295   -6.61007
       O     0.08151    5.22989   -7.42927
      H1    -0.35056    4.70086   -8.08364
       H     0.73182    0.77292   -5.58293
       O     0.54302    1.66909   -5.90545
      H1     0.02826    1.52968   -6.68764
       H    -3.56978    7.91323   -4.97675
       O    -4.08586    8.74072   -4.90756
      H1    -4.98821    8.55481   -5.14000
       H     0.10837    6.62853  -12.42091
       O    -0.89238    6.50467  -12.30606
      H1    -0.87665    5.69712  -11.83024
       H    -2.81103    7.37759  -10.25642
       O    -3.65060    6.95953  -10.41473
      H1    -3.94304    7.33424  -11.23834
       H     4.37649    6.69143   -4.25641
       O     4.62114    7.31946   -4.97114
      H1     3.97228    7.20356   -5.66303
       H    -4.45938    6.37915   -3.10005
       O    -4.74970    6.62258   -2.21723
      H1    -5.37848    5.96581   -1.94966
       H     1.70733    9.55667  -10.17251
       O     1.51448    9.16765  -11.01929
      H1     0.61724    8.85672  -10.81822
       H     0.21185    6.19621   -1.72704
       O     0.25513    5.30736   -2.10661
      H1    -0.05063    4.68583   -1.41067
       H     4.62450    4.01499   -7.63610
       O     3.71959    4.14958   -7.96036
      H1     3.19130    3.39499   -7.76436
       H    -0.42716    2.80950   -9.15148
       O     0.43529    3.16705   -9.17512
      H1     0.49726    3.55663  -10.10356
       H    -6.71622    3.09812   -8.63749
       O    -5.76641    3.26215   -8.43713
      H1    -5.81851    4.03895   -7.87123
       H     0.53906    6.69291   -8.09126
       O     0.57742    7.66914   -8.26742
      H1     0.09713    7.98001   -7.45321
       H     2.80384    2.85017   -2.96843
       O     2.92325    1.96451   -2.56611
      H1     2.87505    2.21861   -1.65768
       H     2.35799    7.27048  -11.07937
       O     2.63894    6.38660  -11.26057
      H1     2.76051    6.50728  -12.23904
       H    -2.29598   -0.37716   -4.52192
       O    -2.48507    0.51866   -4.83226
      H1    -2.26576    1.21341   -4.22162
       H    -2.34147    0.59491   -1.98050
       O    -1.38968    0.26549   -2.09603
      H1    -1.13662    0.83560   -2.85692
       H    -1.30551   11.22449   -7.01051
       O    -0.49304   10.71953   -6.80661
      H1    -0.06193   10.62454   -7.69127
       H    -3.94228    5.51168   -5.41418
       O    -3.40759    5.79167   -4.70176
      H1    -2.80557    5.05809   -4.57865
       H    -0.87613    8.21949   -9.07428
       O    -1.51774    8.61365   -9.65851
      H1    -2.02056    9.09186   -9.00863
       H    -2.81198    3.92757  -11.05014
       O    -2.51018    4.54115  -10.38784
      H1    -3.09979    5.30594  -10.36044
       H    -3.79318   10.57476   -7.54281
       O    -3.26780    9.76743   -7.47177
      H1    -3.46831    9.45418   -6.55760
       H     0.17572    2.28413   -2.73301
       O    -0.39024    2.31286   -3.51728
      H1     0.05998    2.05468   -4.29457
       H     3.60497    1.03580   -6.03139
       O     3.20789    1.55394   -6.81006
      H1     2.29337    1.73280   -6.60674
       H     2.46461    4.51024   -4.16976
       O     2.72634    4.86800   -3.33013
      H1     1.89861    4.90379   -2.76636
       H    -0.10429    8.78431   -0.48500
       O    -0.08912    7.93191   -0.95421
      H1    -0.34238    8.16184   -1.86214
       H    -1.75653    0.58090   -9.33896
       O    -1.52302    0.05953  -10.16529
      H1    -2.33596   -0.39753  -10.41403
       H    -4.85620    7.71455   -9.06304
       O    -5.20812    7.92207   -8.18617
      H1    -4.45247    8.55219   -7.87837
       H    -3.37796    4.77117   -7.45645
       O    -2.80183    4.05783   -7.73331
      H1    -2.66101    4.24133   -8.67636
       H     3.65784    6.11583   -7.51834
       O     3.42257    7.04284   -7.32549
      H1     2.47470    7.15976   -7.55754
       H    -0.77018    3.80990   -4.32879
       O    -0.83552    4.65876   -4.74684
      H1    -0.62079    5.22814   -3.97796
       H     1.12324    8.79259   -3.52520
       O     0.21380    8.56118   -3.65489
      H1    -0.24976    9.43774   -3.52848
       H    -2.00518    0.98796   -6.89178
       O    -1.72695    1.45051   -7.66270
      H1    -2.37598    2.18494   -7.61139

