111
frame 6 | Written by MDAnalysis XYZWriter (release 2.4.3)
       H    -4.40767    4.15094   11.89628
       O    -5.24948    3.86856   12.18343
      H1    -5.06494    2.88252   12.28482
       H    -7.26126    0.46027   11.18491
       O    -6.64195   -0.24311   11.02630
      H1    -5.92041    0.01919   11.59097
       H   -10.86474    6.02511   13.26361
       O   -11.25745    6.13936   14.09141
      H1   -11.56410    7.05877   14.09528
       H   -12.93712    2.92624   13.50413
       O   -12.45003    2.14026   13.17837
      H1   -12.14311    1.70028   13.97730
       H   -12.42369    1.41045   18.42218
       O   -11.54630    1.58352   18.07498
      H1   -10.86301    1.20258   18.58379
       H   -13.83418   -2.20495   14.79690
       O   -13.17252   -1.52800   14.44634
      H1   -12.43012   -2.01330   14.08748
       H   -13.66434    4.03738   15.32323
       O   -13.43492    4.36248   14.41766
      H1   -12.65532    4.96767   14.46411
       H   -10.33238   -2.96128   16.30286
       O   -11.11845   -3.41133   16.81957
      H1   -11.68852   -3.79385   16.16952
       H    -7.90062   -4.17440   11.80177
       O    -7.40248   -4.47968   12.56059
      H1    -6.47215   -4.36673   12.28506
       H    -1.50090   -1.00053   13.97951
       O    -2.39907   -0.99065   13.64430
      H1    -2.80054   -0.14791   13.92454
       H    -7.66676    2.83436   10.34715
       O    -8.21158    2.26584   10.87322
      H1    -9.07493    2.74796   10.83079
       H    -7.64361    1.73029   14.89317
       O    -6.86721    2.29120   14.86660
      H1    -7.10104    3.16977   14.33695
       H    -8.21070   -4.59457    9.73749
       O    -8.09318   -3.64159    9.93761
      H1    -7.18687   -3.40416    9.76208
       H    -8.93024    5.00296   12.77119
       O    -9.55615    5.40253   12.16525
      H1    -9.87111    4.69213   11.54857
       H   -12.77792    0.87265   11.60817
       O   -12.61554    0.37096   10.74871
      H1   -13.17354   -0.37785   10.83660
       H   -15.29337   -0.34316   12.55921
       O   -14.66749    0.23350   12.94815
      H1   -14.12089   -0.35236   13.51614
       H    -9.61473   -2.05257   19.64741
       O   -10.24773   -1.29729   19.79213
      H1   -10.91173   -1.20116   19.06936
       H    -7.94147   -0.66399   18.15450
       O    -7.72335   -0.44575   17.24050
      H1    -6.88437   -0.92770   17.07790
       H   -11.39864    3.79453    9.96633
       O   -10.84599    3.40881   10.63508
      H1   -11.38251    2.95346   11.25928
       H    -6.64934   -1.64931   14.12651
       O    -6.33203   -2.53879   14.28492
      H1    -6.83981   -3.15599   13.81082
       H    -5.97108    5.33166   15.62850
       O    -5.55016    5.59320   16.44652
      H1    -4.69582    5.74309   16.12586
       H    -4.27885    0.88835   17.50075
       O    -3.71553    0.26552   17.06053
      H1    -2.83462    0.30363   17.51441
       H   -12.30152   -3.79797   13.49484
       O   -11.44493   -3.32536   13.43153
      H1   -11.40391   -3.10075   12.49665
       H   -13.05983   -0.86591   17.85816
       O   -12.46627   -1.60876   18.19972
      H1   -12.03035   -1.90994   17.38348
       H    -7.24555    5.58648   14.02473
       O    -7.29300    4.64427   13.72673
      H1    -6.44828    4.60770   13.23741
       H    -8.49024   -1.82882   16.26767
       O    -8.91445   -2.37329   15.64654
      H1    -8.56233   -1.91334   14.89568
       H    -8.35525   -4.75344   15.65734
       O    -7.90914   -5.48650   16.17537
      H1    -7.27946   -5.82536   15.56223
       H    -9.20891    0.26960   13.36388
       O    -8.81017    0.53941   14.24222
      H1    -9.54275    0.19676   14.82764
       H    -5.71161   -2.39576   15.85155
       O    -5.53637   -2.11953   16.77823
      H1    -4.96121   -1.36784   16.63354
       H    -9.31342   -2.42870   10.65250
       O   -10.11826   -2.17393   11.14472
      H1   -10.19628   -1.22782   10.93500
       H   -10.82233    0.21367   10.22733
       O    -9.91444    0.30783   10.01959
      H1    -9.60714    1.01873   10.57869
       H   -11.38964    3.40628   17.68752
       O   -11.71489    4.35057   17.63119
      H1   -11.48330    4.67597   18.56201
       H    -2.43552    2.61674   14.49489
       O    -3.07224    1.87229   14.47842
      H1    -2.96678    1.42977   15.37098
       H    -7.30417   -0.29043    8.11321
       O    -6.37579   -0.26471    8.31603
      H1    -6.45353   -0.24727    9.30546
       H    -6.07710    2.30906   17.95017
       O    -5.48768    2.38148   17.16090
      H1    -6.03167    2.37773   16.36801
       H    -4.35955    1.41423   13.46095
       O    -5.22979    1.29878   13.04503
      H1    -5.87864    1.71831   13.66308
       H   -11.67764    1.17046   16.15572
       O   -11.60372    0.65859   15.36157
      H1   -12.22095   -0.09120   15.49505

