111
frame 11 | Written by MDAnalysis XYZWriter (release 2.4.3)
       H    -7.26626   -9.73762    3.91724
       O    -6.63633   -9.53459    4.61060
      H1    -7.04906   -8.79855    5.10936
       H    -8.04906   -8.54210    9.22382
       O    -8.97398   -8.45142    8.83358
      H1    -9.24877   -9.39696    8.71602
       H    -4.05309   -3.22588   11.65053
       O    -4.29555   -2.42732   12.11349
      H1    -3.43486   -1.90233   12.10177
       H    -7.01748   -4.79899    5.08763
       O    -7.21128   -4.38764    4.25483
      H1    -6.48864   -3.83989    3.99257
       H   -11.82734   -6.86266   10.21085
       O   -12.74764   -7.16644    9.95383
      H1   -13.17548   -7.02827   10.83051
       H    -0.96342   -5.60303    5.96482
       O    -0.51012   -6.08888    6.66226
      H1    -1.03366   -6.91361    6.69827
       H    -4.77116   -1.80491    7.09988
       O    -4.22329   -1.42752    6.37027
      H1    -3.50870   -0.97867    6.87386
       H    -9.69469  -11.99856   10.00349
       O    -8.92750  -11.48414    9.79735
      H1    -8.23240  -12.13763    9.73996
       H    -7.97366  -10.86963   11.60239
       O    -7.53687  -10.94455   12.46170
      H1    -6.58850  -10.80985   12.22784
       H   -10.33312   -8.57102   11.49164
       O   -10.36769   -9.50759   11.79904
      H1   -11.13057   -9.83733   11.25264
       H    -3.99614   -5.63893   11.56296
       O    -3.77907   -4.88404   10.99202
      H1    -4.35195   -4.99017   10.17880
       H    -8.69770   -3.95491    6.82914
       O    -8.65810   -3.07005    6.43135
      H1    -8.14626   -3.28163    5.64317
       H    -6.59388   -4.44137   12.20987
       O    -6.70301   -4.44940   13.15346
      H1    -5.83541   -4.23585   13.60112
       H    -1.08124   -4.67678    7.76638
       O    -1.31250   -3.77957    7.95903
      H1    -0.66896   -3.22448    7.49111
       H    -8.43312   -3.63653   10.31904
       O    -7.50737   -3.87321   10.48547
      H1    -7.26108   -4.57820    9.81415
       H    -2.59026   -7.96694   10.53170
       O    -1.74277   -7.47893   10.29275
      H1    -1.87023   -6.56167    9.95655
       H    -5.15553   -7.74276    3.74260
       O    -4.67312   -7.14025    4.36282
      H1    -4.52160   -6.42302    3.77194
       H    -5.76932   -8.44680   10.00246
       O    -6.35735   -8.58891    9.24822
      H1    -5.81013   -8.95257    8.57927
       H    -9.63826   -7.34998    9.87880
       O   -10.08316   -6.86738   10.63232
      H1    -9.46364   -6.17619   10.73568
       H    -2.01452   -8.51133    5.27676
       O    -1.98634   -8.60175    6.20763
      H1    -1.54965   -9.40950    6.41474
       H    -5.66354   -2.73584    9.25128
       O    -5.05685   -2.11034    8.91635
      H1    -5.36151   -1.25279    9.15976
       H    -7.87200   -5.43468   13.82017
       O    -8.49420   -6.13264   14.23202
      H1    -9.07613   -5.58571   14.76457
       H    -9.92813   -7.07681    5.83791
       O   -10.78097   -6.61152    5.88044
      H1   -11.52454   -7.18942    5.81785
       H    -3.93271   -9.14010    6.89402
       O    -4.81592   -9.54726    6.98992
      H1    -4.99939  -10.06883    6.19543
       H    -5.93913   -5.49984    8.25506
       O    -5.91242   -5.72884    9.18433
      H1    -6.23165   -6.64375    9.25693
       H    -2.73085   -4.01497    6.82351
       O    -3.39885   -4.02137    6.03328
      H1    -3.69295   -3.08979    6.08128
       H    -4.40490   -9.49893   11.46160
       O    -4.24202   -8.68207   10.99402
      H1    -4.41156   -7.99978   11.66534
       H   -10.66795   -5.51360    7.41989
       O   -10.06055   -4.98383    7.99625
      H1   -10.76947   -4.36306    8.22666
       H    -9.00392   -0.31730    7.65158
       O    -8.12018   -0.70769    7.80268
      H1    -8.25588   -1.60140    7.36633
       H    -8.46560   -8.02976   14.08797
       O    -8.62708   -8.94799   14.23615
      H1    -8.22884   -9.35190   13.46178
       H    -4.90015   -4.77566    6.48548
       O    -5.75770   -5.31551    6.49765
      H1    -5.42236   -6.14690    6.19838
       H    -8.35260   -3.55442   13.12332
       O    -9.04719   -3.13077   13.68200
      H1    -9.66801   -2.62371   13.12959
       H   -10.84918   -2.90563   10.73619
       O    -9.96301   -2.54532   10.55216
      H1    -9.96173   -1.66797   10.82254
       H    -5.45483  -12.31825    9.00363
       O    -6.35834  -12.62485    8.83642
      H1    -6.50726  -12.39414    7.89688
       H    -8.45188   -8.08719    6.82941
       O    -8.59451   -7.92643    5.91687
      H1    -9.10582   -8.69850    5.62010
       H    -2.82154  -11.35967    8.37011
       O    -3.73231  -11.62013    8.42433
      H1    -4.20496  -10.92576    8.01604
       H    -5.11543   -6.07899   13.05477
       O    -4.81272   -7.00284   13.00015
      H1    -4.32456   -7.16231   13.80404

