111
frame 11 | Written by MDAnalysis XYZWriter (release 2.4.3)
       H    11.94823    5.11173   -7.65022
       O    11.31150    4.99653   -6.90761
      H1    11.80482    5.10613   -6.04855
       H    15.23898    7.90154   -8.01411
       O    14.39622    8.00580   -8.46856
      H1    13.94811    8.70755   -8.00024
       H     3.83192    6.15846   -5.17437
       O     4.11898    7.03840   -5.46532
      H1     3.99598    7.05177   -6.39845
       H    14.98337    2.72860   -5.63631
       O    14.65844    2.79520   -4.72804
      H1    14.10885    3.55196   -4.69755
       H    12.38123    8.87501   -4.56043
       O    11.98875    9.01909   -3.70932
      H1    11.02813    8.97356   -3.86883
       H    13.01923    4.08227  -11.37339
       O    13.97649    4.31302  -11.45556
      H1    14.24597    4.05310  -12.35245
       H    10.63714    4.56592   -2.67525
       O    11.11605    5.37442   -2.63355
      H1    11.83007    5.30980   -1.99068
       H     9.93069    0.72469   -7.24884
       O     9.93739   -0.02188   -7.97615
      H1     9.41153    0.26053   -8.72452
       H     5.04540    4.45491   -8.57329
       O     4.37696    5.11772   -8.86054
      H1     3.60231    4.80088   -8.33830
       H    10.49092   10.41712   -8.83099
       O    10.96817   10.58027   -9.67019
      H1    10.90569    9.68870  -10.09900
       H     9.10794    2.94713  -10.66712
       O     9.13656    3.54880  -11.44492
      H1     8.43842    4.15381  -11.38178
       H     5.28461    1.74358   -3.23617
       O     5.43889    2.53693   -3.75400
      H1     5.19568    3.32503   -3.17596
       H    13.52405    1.70898   -5.09210
       O    12.85181    0.99952   -5.38884
      H1    12.32471    0.84476   -4.59908
       H     6.13372    2.69864   -7.65739
       O     6.54298    3.47108   -8.14074
      H1     6.98429    4.10105   -7.57003
       H     9.90314    8.81773   -6.18170
       O    10.45939    8.70133   -6.97441
      H1     9.81420    8.34500   -7.63888
       H     7.11104    0.86187   -9.37076
       O     7.84624    1.49159   -9.37249
      H1     7.41475    2.23769   -8.84361
       H    12.62005    4.96205   -3.66127
       O    13.02904    4.84763   -4.50463
      H1    13.80599    5.46770   -4.52229
       H     8.12679    6.21195   -6.37520
       O     8.53114    5.61954   -7.02225
      H1     9.50948    5.69644   -6.94163
       H     8.76935    6.60571   -8.34098
       O     9.00685    7.31810   -8.96034
      H1     8.26651    7.95843   -8.89265
       H     7.08820    9.76853   -6.87315
       O     7.23530    9.98593   -5.96302
      H1     6.45754   10.48101   -5.61058
       H     8.77860    2.83589   -2.79981
       O     8.99096    3.51334   -2.13151
      H1     8.13481    3.62613   -1.67245
       H    10.68698    8.08100  -11.79983
       O    11.18935    8.08232  -10.92967
      H1    10.63653    7.58040  -10.30475
       H     4.25991    3.93380   -4.94720
       O     3.42514    4.28898   -5.26139
      H1     2.92085    3.49384   -5.33393
       H    12.78562   10.60478   -6.36649
       O    13.09913    9.68129   -6.60138
      H1    12.28193    9.25743   -6.84490
       H    11.50125    1.84666   -5.93995
       O    10.60137    2.13586   -6.18718
      H1    10.66228    3.10391   -6.38820
       H     6.98854    9.87571   -9.37395
       O     7.17176    9.27304   -8.67319
      H1     6.29121    8.82492   -8.56119
       H     6.04692    7.14469   -5.62334
       O     6.96961    7.25096   -5.41226
      H1     7.21357    8.10961   -5.68488
       H     6.13028    7.84524   -2.43448
       O     6.09706    6.95922   -2.83158
      H1     6.17720    7.16135   -3.76495
       H     8.07756   13.17152   -6.76491
       O     8.51304   12.31494   -7.09670
      H1     8.54568   11.75618   -6.30349
       H    16.08897    3.81430   -7.21361
       O    15.80047    4.75001   -7.29246
      H1    14.93246    4.73925   -7.74286
       H    11.90106    2.52408  -12.51259
       O    11.66010    2.82193  -11.62779
      H1    10.71910    3.16026  -11.74704
       H    13.81521    6.33703   -8.67746
       O    13.53474    5.44175   -8.78177
      H1    13.70385    5.07543   -9.65366
       H     9.08001    2.18913   -4.72925
       O     8.41571    1.84099   -4.06712
      H1     7.61993    2.29770   -4.40752
       H     4.74178    7.13832   -8.60176
       O     4.94825    7.91105   -8.08420
      H1     4.12881    8.45223   -8.12303
       H     5.19407    0.81763   -6.64757
       O     5.30088    1.74845   -6.63211
      H1     5.32296    2.03069   -5.70256
       H     9.07424    8.29640   -3.65479
       O     9.39258    8.95041   -4.37585
      H1     8.61319    9.37616   -4.76569
       H     9.50696    6.48928   -2.42046
       O     8.88677    7.23043   -2.29747
      H1     7.96413    6.96111   -2.52779

