111
frame 2 | Written by MDAnalysis XYZWriter (release 2.4.3)
       H   -13.66558    1.72874    4.28155
       O   -14.02406    1.02847    3.65007
      H1   -14.99380    0.98491    3.83962
       H    -7.62278   -4.57221    6.39474
       O    -7.56203   -3.67772    6.01944
      H1    -7.13733   -3.74638    5.16467
       H   -10.09805   -1.67748    2.00871
       O    -9.15619   -1.67468    2.22477
      H1    -9.11551   -0.90890    2.84941
       H    -7.65213    3.22041    7.49021
       O    -7.21155    3.93024    7.02332
      H1    -7.12793    3.61988    6.14429
       H   -10.91841   -4.42139    2.95019
       O   -10.76125   -3.81645    3.67995
      H1   -10.11868   -3.14134    3.37728
       H   -12.06857   -5.59993    9.79392
       O   -11.38853   -6.24828    9.97792
      H1   -10.79923   -6.22360    9.22178
       H   -11.10780    1.61583    3.01224
       O   -11.43613    2.13285    2.23246
      H1   -11.05104    1.66942    1.49249
       H   -13.92100   -0.79496    3.00346
       O   -14.21753   -1.44395    2.36936
      H1   -14.38637   -2.28517    2.79193
       H   -14.15337   -3.99490    9.44644
       O   -13.58985   -4.79758    9.25734
      H1   -13.98385   -5.02836    8.39483
       H   -11.18429    0.03250    4.69829
       O   -10.62734    0.81457    4.69418
      H1    -9.69947    0.52359    4.72502
       H   -11.90580   -2.27471    4.43453
       O   -12.14571   -1.39826    4.46747
      H1   -13.00747   -1.57493    4.80877
       H    -9.00867   -4.76111   12.62718
       O    -8.72183   -4.07228   12.04432
      H1    -8.56565   -4.44901   11.19417
       H    -8.96709   -2.27108    6.30427
       O    -9.64587   -1.60017    6.48040
      H1   -10.20469   -1.70389    5.68702
       H   -14.40264    1.14391   10.13826
       O   -13.92601    1.40894    9.34772
      H1   -13.94448    0.59746    8.77553
       H    -4.57911    0.57739    7.02171
       O    -4.67122   -0.36811    7.19317
      H1    -5.58416   -0.46363    6.94089
       H    -8.19728    2.56110    2.69121
       O    -7.87227    1.82918    2.12865
      H1    -7.14447    2.13207    1.52792
       H    -7.99248    3.02567    9.45664
       O    -7.86518    2.07743    9.20305
      H1    -6.95424    1.87404    9.16442
       H   -14.24425   -5.64173    4.68966
       O   -14.82465   -4.93422    4.89082
      H1   -14.29216   -4.29007    5.42952
       H   -10.78541    1.33688    6.35269
       O   -10.78963    1.39899    7.32193
      H1   -10.01591    1.96146    7.61603
       H   -13.11256   -1.21302    8.21523
       O   -13.61190   -0.49911    7.65647
      H1   -12.89858   -0.03781    7.19770
       H   -10.65153   -5.23695    5.01573
       O   -10.43608   -6.12381    5.34538
      H1   -10.04111   -6.54503    4.59351
       H   -10.89802    2.96269    9.37171
       O   -11.57439    3.64464    9.47307
      H1   -12.35050    3.05274    9.23812
       H    -8.12648   -3.51966    9.30116
       O    -8.03417   -4.49366    9.19826
      H1    -7.08431   -4.63263    9.05464
       H    -7.75469   -0.05006    5.26222
       O    -8.18804    0.09912    4.39810
      H1    -7.79697    0.79601    3.86889
       H   -11.94701   -3.26591    1.25372
       O   -11.67961   -2.33785    1.23724
      H1   -12.43082   -1.82962    1.61742
       H    -4.05598   -0.61919    5.45498
       O    -3.50637   -0.73001    4.67408
      H1    -2.88053   -1.45974    4.77311
       H    -6.19938   -4.33697    3.15195
       O    -5.79763   -3.97499    3.96812
      H1    -5.19243   -3.36835    3.49894
       H    -7.26283    0.74574    7.45643
       O    -7.52362   -0.06210    6.96399
      H1    -8.48794   -0.23062    6.99093
       H    -8.13892    4.51360    4.04260
       O    -8.52879    3.62487    4.11485
      H1    -9.48678    3.77155    4.17475
       H    -5.75737   -2.74765    7.80005
       O    -5.34144   -3.49899    8.26222
      H1    -5.31754   -4.10827    7.51301
       H    -9.90571   -2.61297   11.48026
       O   -10.54367   -1.94818   11.04059
      H1   -10.02044   -1.17415   11.14815
       H    -7.46863   -0.87713    9.48402
       O    -7.30555   -1.49536   10.16641
      H1    -6.61232   -1.08107   10.63572
       H    -8.97579   -7.87606    8.27303
       O    -9.83894   -7.51143    8.00506
      H1    -9.77284   -7.05637    7.12383
       H   -12.70303   -5.03058    7.08510
       O   -12.53836   -4.24603    6.57905
      H1   -12.07966   -3.59978    7.14876
       H   -15.63969   -1.11467    5.72714
       O   -14.81639   -1.58063    5.64191
      H1   -14.34534   -1.26298    6.43621
       H    -4.81417    0.63203    8.79946
       O    -5.19335    1.41133    9.25257
      H1    -4.81533    1.57103   10.18873
       H   -11.43987   -2.14842    9.29244
       O   -11.58436   -2.27984    8.35154
      H1   -10.80593   -1.83674    7.94220

