111
frame 7 | Written by MDAnalysis XYZWriter (release 2.4.3)
       H     4.85303   11.76079   18.74634
       O     4.28507   12.07917   18.01275
      H1     4.82345   11.95291   17.20469
       H     3.45637   10.53344   18.06865
       O     3.29092    9.56450   18.14967
      H1     4.18423    9.17831   18.18143
       H     4.72393   11.91938   14.86016
       O     5.48724   11.57801   15.37529
      H1     5.91539   10.84233   14.92572
       H     2.64223   15.48846   16.95594
       O     2.59501   15.95310   17.85625
      H1     3.23373   15.50078   18.40267
       H     3.32295   13.78906   14.50433
       O     3.51098   12.91348   14.24637
      H1     3.93733   13.00074   13.38460
       H     7.56347   12.50918   18.02002
       O     7.59889   11.49829   18.06756
      H1     8.38056   11.35360   18.59076
       H     3.63172    6.32260   16.43891
       O     4.31529    6.82813   16.02010
      H1     3.94624    7.70723   15.92270
       H     3.51976   17.24631   12.46573
       O     2.57351   17.43178   12.70439
      H1     2.05233   16.98003   12.02738
       H     0.48070    9.65869   19.52292
       O    -0.05913   10.41538   19.15908
      H1     0.16356   10.40911   18.22873
       H     6.76441   16.74554   12.51926
       O     5.87480   16.42832   12.45991
      H1     5.83092   16.09267   11.56532
       H     6.57469   15.01302   14.03015
       O     7.52592   15.19342   14.37242
      H1     7.77440   14.30254   14.64399
       H     0.36558   14.56039   19.54037
       O     0.21785   15.18894   18.79735
      H1     1.14738   15.42052   18.52555
       H    -1.14414   11.41884    9.90930
       O    -0.54921   12.15548   10.04527
      H1    -0.74960   12.74304    9.26255
       H     9.25451   12.55131   15.30367
       O     8.38447   12.66113   14.81490
      H1     7.61420   12.38830   15.29667
       H     2.43841    9.48425   15.20081
       O     2.28646    8.76431   15.81614
      H1     2.60667    9.06740   16.66836
       H     4.71709   13.97821   10.80128
       O     4.54438   13.15353   11.32701
      H1     3.81862   12.64517   10.92210
       H    -0.99535   14.12441   17.50948
       O    -1.32571   13.54435   16.78397
      H1    -2.25707   13.23640   17.05358
       H    -0.12635   17.12309   14.72010
       O    -0.01383   17.77080   15.41459
      H1    -0.86764   17.75939   15.90171
       H    -0.45774   13.96313   15.19812
       O    -0.37877   14.12613   14.26309
      H1    -0.64162   13.29314   13.84384
       H    -0.02484   16.18107   10.76848
       O     0.66533   15.53498   10.54131
      H1     0.44631   14.59900   10.75501
       H     1.66916   18.25675   15.93767
       O     2.35460   18.24705   16.58525
      H1     2.26500   17.44492   17.12145
       H     7.91917   14.66063   17.47916
       O     7.13591   14.20002   17.82654
      H1     7.11426   14.62823   18.69071
       H     2.27182   16.22756    9.95935
       O     2.87707   16.79643    9.47576
      H1     3.01492   16.54364    8.51903
       H     5.97118   12.16326   11.45150
       O     6.60006   11.45986   11.10981
      H1     7.43136   11.83064   11.20872
       H     0.30230   11.29058   13.22595
       O    -0.58437   11.35774   12.92288
      H1    -0.63570   11.92091   12.15175
       H     9.05453   12.46688   12.92541
       O     9.37009   12.57596   12.01803
      H1     9.87004   11.82993   11.84050
       H     6.63176   16.22695   16.51516
       O     6.91025   17.11910   16.86352
      H1     6.53812   17.26306   17.75034
       H     6.10415   15.27522    9.27721
       O     5.46178   15.37187    9.99796
      H1     4.74491   15.98610    9.67857
       H     2.77015    7.33655   12.36912
       O     2.97920    8.26606   12.12495
      H1     3.89563    8.31632   12.30309
       H     0.29926   10.56087   15.41308
       O    -0.33530   10.47517   16.12824
      H1    -0.55257   11.39482   16.47897
       H     6.67581    8.75518   18.26476
       O     6.09867    9.26669   17.68742
      H1     6.57149   10.11325   17.62393
       H     6.31330    9.13190   12.89610
       O     5.94875    8.74982   12.11519
      H1     5.88559    9.47807   11.47952
       H    -1.97654   14.74905   14.78576
       O    -2.89115   14.92059   14.94424
      H1    -3.12245   15.57201   14.30954
       H     2.11425   10.39516   13.10034
       O     1.90585   10.73857   13.98329
      H1     2.56786   11.46859   14.06423
       H     2.63120   16.35956   14.90357
       O     2.54998   15.42087   15.15331
      H1     1.77482   15.10720   14.66734
       H     1.21841   11.61214    9.98588
       O     2.18876   11.43122   10.00650
      H1     2.09754   10.43192    9.95543
       H     7.25101    8.86802   15.04877
       O     6.29472    9.07080   14.88430
      H1     6.02785    9.22418   15.81631

