111
frame 2 | Written by MDAnalysis XYZWriter (release 2.4.3)
       H     4.17850   12.41199   18.61441
       O     4.26935   11.48286   18.38934
      H1     5.18188   11.17667   18.57053
       H    -5.36968   12.33723   15.86107
       O    -4.51773   12.39984   16.30346
      H1    -4.68562   13.23832   16.79800
       H    -8.44887   15.15555   13.61409
       O    -8.15671   14.26206   13.68511
      H1    -8.17349   14.00477   14.58743
       H    -8.76379   13.93985   16.93093
       O    -7.97572   14.39003   16.60693
      H1    -8.19061   15.30806   16.65413
       H     5.40389   19.01328   14.67812
       O     5.03331   19.69316   14.09559
      H1     4.14677   19.75560   14.44188
       H     0.12162   18.70966   12.88538
       O     0.95717   18.92557   13.32580
      H1     1.42561   18.01632   13.37940
       H    -6.65686   14.20533   12.77347
       O    -5.93197   14.14300   12.08862
      H1    -6.34582   13.44084   11.53234
       H     3.09369   16.21005   12.86909
       O     2.22443   16.47499   13.25402
      H1     1.53274   16.20018   12.64623
       H     2.29442   14.41004   18.76828
       O     1.41284   14.50408   18.31146
      H1     1.41151   15.32181   17.77892
       H    -3.04648   11.16087   13.48665
       O    -3.24830   10.41274   12.93985
      H1    -2.99478   10.63193   12.02435
       H     3.42839   17.54551   16.14105
       O     2.95322   18.27937   15.73144
      H1     2.36174   17.77410   15.14671
       H    -5.84096   17.58550   14.34263
       O    -6.28622   18.22163   14.87282
      H1    -6.08617   19.12292   14.58640
       H     3.53832   10.35346   15.23123
       O     3.28365   10.05898   16.09364
      H1     4.03988   10.47453   16.50025
       H    -2.23491   18.23953   10.58524
       O    -1.75701   17.74982    9.93088
      H1    -2.38448   17.02953    9.66954
       H     0.09173   13.48246   17.94507
       O    -0.52614   12.75801   17.72215
      H1    -1.10760   12.56698   18.51180
       H    -0.72626   16.99541   17.20241
       O     0.06546   16.95946   17.81076
      H1     0.44515   17.85190   17.68557
       H    -0.75674   13.60771   16.13669
       O    -0.55951   14.15030   15.36471
      H1    -0.90810   14.97916   15.60848
       H    -0.58562   16.71443   10.79104
       O    -0.09837   16.06305   11.28518
      H1    -0.56963   15.24974   11.22433
       H     4.41367   15.11396   15.67258
       O     4.68566   15.77284   16.36538
      H1     5.20118   15.26307   17.02140
       H    -6.12737   14.50118   17.18935
       O    -5.27648   14.59503   17.59590
      H1    -5.03721   15.50867   17.28440
       H     6.59821   13.79544   17.35710
       O     6.44899   14.48948   17.99398
      H1     6.52995   14.07585   18.85143
       H    -2.77277   16.87685   13.27740
       O    -2.12709   17.54245   12.90302
      H1    -1.62632   16.96478   12.31335
       H    -1.33263   17.05438   19.10007
       O    -2.32051   17.16418   19.24177
      H1    -2.48532   16.49406   19.91567
       H    -0.68397    7.35128   18.38661
       O    -0.19092    7.53074   17.59290
      H1    -0.23367    8.46374   17.37075
       H     0.97854    9.95342   12.99554
       O     1.73026   10.59269   13.01950
      H1     1.32026   11.45319   12.97622
       H     0.01265   13.29216   13.68752
       O     0.61692   13.04582   12.96210
      H1    -0.07182   12.98145   12.24221
       H    -1.87761   10.34238   15.19275
       O    -1.43210    9.52741   15.46935
      H1    -0.56351    9.86145   15.75900
       H    -4.38688   14.89240   13.52116
       O    -3.81635   15.45357   14.00603
      H1    -3.36757   14.89402   14.60271
       H     7.04309   16.89889   14.19169
       O     6.84342   17.27816   15.07591
      H1     6.02020   16.76895   15.41679
       H    -5.07494   18.00863   16.92925
       O    -4.50078   17.22556   17.00330
      H1    -3.80744   17.49827   17.59340
       H    -2.04271   13.02337   14.69561
       O    -2.43941   12.16698   14.79820
      H1    -3.08697   12.30445   15.51564
       H    -8.82550   17.13064   15.27145
       O    -8.41502   17.07249   16.10876
      H1    -7.60740   17.53944   15.90097
       H     1.68516   10.21643   16.77487
       O     0.83307   10.35285   17.13702
      H1     0.83760   11.19985   17.57093
       H    -2.88479   16.51247   16.32120
       O    -2.00087   16.64585   16.01452
      H1    -2.04552   17.59298   15.79220
       H     2.45719   14.43890   14.49449
       O     3.18329   13.96555   14.92035
      H1     2.82687   13.36290   15.56827
       H    -6.15014    9.85542   18.74367
       O    -5.25730   10.00072   18.41112
      H1    -5.14806   10.93617   18.09680
       H    -4.20855    9.14254   17.05150
       O    -3.69015    8.47176   16.52738
      H1    -2.88826    8.92466   16.26541

