111
frame 9 | Written by MDAnalysis XYZWriter (release 2.4.3)
       H     5.55101    2.38803   11.31386
       O     5.09419    1.65798   11.71348
      H1     5.35219    1.76002   12.65638
       H    -3.62040   -2.84433   11.87163
       O    -4.26180   -2.20415   12.25748
      H1    -3.63922   -1.73654   12.84632
       H     4.61671   -2.28568   13.03092
       O     5.25466   -2.65980   12.41810
      H1     5.02507   -2.41370   11.52827
       H    -0.05049    3.47044   13.93001
       O    -0.40132    3.49743   14.81448
      H1     0.18011    2.84500   15.25566
       H     3.97176   -3.87900    8.83615
       O     4.58537   -3.49241    9.49661
      H1     5.27518   -4.16746    9.68035
       H     1.66590   -1.62585   18.86652
       O     1.99421   -1.81525   17.97207
      H1     2.18329   -2.75177   17.81053
       H    -3.23989   -4.53777   11.74451
       O    -3.07347   -4.05289   10.93731
      H1    -3.68436   -4.22724   10.21210
       H    -1.54769   -0.30309   13.04021
       O    -1.99511   -0.73303   13.85164
      H1    -2.00049   -0.04802   14.52326
       H    -0.11273   -7.19659   12.43149
       O     0.80205   -6.88921   12.31272
      H1     0.90221   -6.29680   11.54006
       H     1.43941    4.78296   14.52156
       O     2.21225    4.46319   14.06484
      H1     2.63052    3.84787   14.69123
       H    -0.87563   -2.66130    7.88682
       O    -1.58818   -2.13120    7.54641
      H1    -1.15610   -1.42974    7.02129
       H     5.08288   -0.77439   17.32382
       O     5.16914   -1.05667   16.41251
      H1     5.19339   -2.00035   16.38614
       H     0.82282    1.12587   16.72968
       O     1.10360    2.05338   16.62173
      H1     0.58583    2.61382   17.18322
       H     2.68067    0.64329    9.75836
       O     2.31915   -0.18799   10.02555
      H1     3.17939   -0.72614   10.14946
       H     0.01988   -3.14499   14.30538
       O    -0.86269   -3.16884   13.86973
      H1    -1.20053   -2.23680   14.06250
       H    -0.05799   -2.15770   10.93421
       O     0.59649   -2.51854   11.57286
      H1     0.12590   -2.89438   12.28787
       H    -1.97087   -4.24864   14.67632
       O    -2.27236   -4.91323   15.26400
      H1    -3.20260   -4.93648   15.32933
       H     2.74684   -1.04071   13.84540
       O     3.57915   -1.49598   14.15886
      H1     4.03285   -0.96896   14.81833
       H     2.27146   -4.79934   10.94218
       O     1.38719   -4.89030   10.63027
      H1     0.98438   -4.02440   10.72559
       H     0.54206   -0.77387   15.34434
       O     0.33698   -0.45010   16.24342
      H1     0.77876   -1.13474   16.77635
       H    -2.03563   -2.43110   10.28325
       O    -1.51239   -1.62501   10.24769
      H1    -1.58340   -1.40845    9.29042
       H     6.14425    0.90442   14.15990
       O     5.71722    1.78319   14.30641
      H1     4.96442    1.61822   14.87771
       H     6.31874   -0.79860   10.34531
       O     5.47819   -0.49272    9.99873
      H1     5.18317    0.15094   10.66842
       H    -4.13863   -0.38407   16.72608
       O    -3.69721   -1.16321   17.07123
      H1    -2.81108   -1.21152   16.65668
       H     4.30582   -4.25824   12.40021
       O     3.99845   -5.04540   11.95143
      H1     4.33228   -4.90360   11.01843
       H     2.56684   -0.86908    6.75484
       O     1.73918   -1.00635    7.26308
      H1     1.80455   -0.42994    8.03796
       H     2.90812    2.23086   16.63426
       O     3.79891    2.51441   16.39311
      H1     4.37093    2.43537   17.25088
       H     2.45564   -3.29686   14.94377
       O     1.72656   -3.77782   15.31939
      H1     1.90313   -4.66253   14.94908
       H     5.90686   -1.06216   13.20427
       O     6.69875   -0.58277   13.55235
      H1     7.27515   -1.21110   13.92789
       H     1.67430    2.84168    8.33211
       O     2.25618    2.52804    9.01192
      H1     2.99464    2.12786    8.54027
       H    -1.62957    0.35228   11.17350
       O    -1.16164    0.76374   11.86476
      H1    -0.18121    0.50129   11.83242
       H     1.03450   -1.00846   12.50685
       O     1.06580   -0.58376   13.39280
      H1     1.31688    0.33796   13.22697
       H     0.21761   -5.63714    7.60236
       O     0.42511   -4.86845    8.09789
      H1     0.75469   -5.06773    8.94763
       H    -1.41742    2.07936   15.35077
       O    -1.81085    1.28825   15.78611
      H1    -1.05327    0.69784   16.11975
       H     2.74452    1.94493   11.88049
       O     1.86810    2.02767   12.27442
      H1     1.75105    2.97749   12.25641
       H    -3.44308    1.66926   14.43659
       O    -4.13563    1.89399   13.83494
      H1    -4.91985    2.04097   14.33882
       H    -1.76504    3.80720   12.73394
       O    -0.95033    3.69210   12.19425
      H1    -0.95522    2.72448   12.02534

