111
frame 7 | Written by MDAnalysis XYZWriter (release 2.4.3)
       H     2.54339   10.89892   -2.42767
       O     2.59420   10.09310   -2.94391
      H1     2.78121    9.38673   -2.35045
       H     2.31493    5.49645  -10.83225
       O     2.92404    4.80832  -10.69397
      H1     3.29707    4.94033   -9.77967
       H     7.02165   11.17557   -1.35179
       O     6.23804   10.62017   -1.19843
      H1     5.92712   10.32211   -2.03626
       H     0.32501    4.39110   -6.11791
       O    -0.01182    4.24707   -7.00220
      H1     0.76688    3.80727   -7.49505
       H     3.10470    4.92642    0.94067
       O     3.41137    3.94409    0.87730
      H1     2.67073    3.52874    0.44102
       H     4.35387    6.72355   -5.17037
       O     3.55174    7.31815   -5.27869
      H1     3.35280    7.28959   -6.22168
       H    10.65399    3.92522   -2.85657
       O    10.68193    4.88064   -3.08256
      H1    11.22119    5.29547   -2.35559
       H     7.07520    3.28831    0.30284
       O     7.13250    3.88829   -0.44683
      H1     6.23501    4.15503   -0.80776
       H     8.23070    1.00080   -6.30727
       O     7.44083    0.78635   -6.79649
      H1     7.49674    1.51035   -7.47647
       H     5.90153    5.82919   -3.78467
       O     5.32269    5.42782   -4.48499
      H1     4.55236    4.98597   -4.01406
       H     6.68877    0.09151   -2.19642
       O     6.07414   -0.58441   -1.75671
      H1     5.55271   -0.09725   -1.12728
       H     4.76690    4.58299   -8.02780
       O     3.83333    4.73411   -8.25388
      H1     3.35668    3.93193   -8.02091
       H     2.23744    3.83675   -3.30709
       O     2.20613    2.93639   -2.97588
      H1     2.54778    3.00227   -2.07947
       H     2.29997   10.48903   -5.01431
       O     2.08401   11.10777   -5.72368
      H1     1.16519   11.31688   -5.56422
       H     2.89360    7.37361   -0.96020
       O     3.29575    7.64190   -1.78927
      H1     3.03072    7.02314   -2.45692
       H     7.20665    6.87191    0.73277
       O     6.45594    7.39447    0.37527
      H1     6.74317    8.20719   -0.01772
       H     8.24811    6.96759   -1.44055
       O     9.04345    7.16261   -0.89307
      H1     8.83802    6.58796   -0.14579
       H     5.04392   11.69011   -4.01827
       O     5.03124   10.75875   -3.84941
      H1     4.13581   10.54593   -3.65980
       H    10.65744    1.43533   -2.34004
       O    10.20040    2.33193   -2.25053
      H1     9.27496    2.18466   -2.53027
       H     5.97180    0.82183   -4.94762
       O     5.14168    0.76732   -4.47228
      H1     5.35945    0.89214   -3.56010
       H     6.49624    3.88043   -6.28438
       O     6.42703    4.37041   -7.14469
      H1     7.12677    4.98152   -7.14138
       H     9.71853    9.16873   -6.53624
       O     9.39902    9.30384   -7.44607
      H1     8.70382    8.68408   -7.68654
       H     6.54169    2.02968   -9.27345
       O     7.26684    2.67336   -9.25398
      H1     6.91143    3.48936   -8.90018
       H     8.81689    6.00701   -6.27984
       O     8.91718    5.64513   -7.14937
      H1     9.77096    5.15256   -7.15636
       H     8.23745    6.76657   -8.13164
       O     7.65501    7.44907   -8.55857
      H1     6.74320    7.42516   -8.31419
       H     7.45487    2.26565   -3.24225
       O     7.30254    1.85659   -2.40164
      H1     7.02543    2.50606   -1.77622
       H     3.85819    2.18006   -5.44216
       O     3.24582    2.48374   -6.12074
      H1     2.37667    2.23330   -5.73307
       H     2.50887    6.41774   -4.18757
       O     2.27115    5.82846   -3.47788
      H1     1.37866    6.16231   -3.25720
       H     5.10099    8.76973   -9.34345
       O     4.91519    8.37895   -8.45752
      H1     4.17893    7.74968   -8.50912
       H     5.22288    8.30438   -5.14361
       O     6.08512    8.61501   -4.90523
      H1     5.92194    9.45891   -4.50516
       H     4.36371    4.33008   -0.54862
       O     4.60632    4.69966   -1.42716
      H1     4.22850    5.60730   -1.34526
       H     5.94300    7.01532   -2.12975
       O     6.59208    7.11948   -2.77761
      H1     6.20557    7.77322   -3.40803
       H     8.78436    3.49685   -5.04616
       O     7.92582    3.46553   -4.56512
      H1     7.54137    4.33077   -4.75223
       H     2.89523    6.24752   -7.85000
       O     2.43735    7.13137   -7.79860
      H1     1.53234    6.89949   -8.02172
       H     4.18035   -0.55511   -6.56363
       O     3.91565    0.00978   -7.26035
      H1     3.68650    0.85591   -6.85332
       H     9.73301    7.97991   -4.87156
       O    10.24218    8.77996   -4.83421
      H1     9.62859    9.36297   -4.43344
       H     9.28538    5.98518   -3.94608
       O     8.70734    6.60027   -4.48357
      H1     7.92200    6.83517   -3.98824

