111
frame 10 | Written by MDAnalysis XYZWriter (release 2.4.3)
       H   -18.35090    0.92421   10.55050
       O   -19.15291    0.68993   11.04628
      H1   -19.33939    1.40357   11.64992
       H   -16.80619    6.41310   10.24300
       O   -16.62469    6.86853   11.08489
      H1   -17.42402    7.21067   11.40882
       H   -10.94912    7.35355   12.74555
       O   -11.29913    6.84175   13.49003
      H1   -12.11332    7.15323   13.79259
       H   -20.10567    5.20435   11.37926
       O   -19.42355    5.33150   12.06541
      H1   -19.18827    4.48952   12.51031
       H   -13.65486   10.72287   11.62576
       O   -14.45024   10.34153   12.07741
      H1   -15.31788   10.64406   11.73913
       H   -15.13202    7.64850   10.88897
       O   -14.24916    8.07840   10.99399
      H1   -14.45370    8.96290   11.37894
       H   -18.85308    6.20976   16.93063
       O   -18.40645    5.39772   17.29514
      H1   -18.85129    4.68797   16.83591
       H   -15.70857    2.80532   12.85986
       O   -16.03471    3.16460   13.70079
      H1   -15.64352    4.03125   13.79024
       H   -18.94408    2.65240   13.91475
       O   -18.56914    2.62710   13.03213
      H1   -17.64439    2.78491   13.08006
       H   -17.16249    5.99674   16.27362
       O   -16.18970    6.20497   16.20312
      H1   -16.09587    6.41165   15.23807
       H   -10.59674    9.56052   17.51564
       O   -11.48202    9.34646   17.91712
      H1   -11.63987    8.38006   17.78514
       H   -14.85945    1.03928   11.99411
       O   -14.97085    1.90036   11.52805
      H1   -15.79514    1.92731   10.98152
       H   -16.35272    7.56855   17.15654
       O   -16.32367    8.35577   17.71989
      H1   -16.82606    8.88390   17.12952
       H   -18.47716   -2.43443   15.58467
       O   -18.64583   -3.39993   15.48178
      H1   -18.84138   -3.71776   16.43108
       H   -13.55750    8.41598   15.03749
       O   -13.52318    7.44764   14.90067
      H1   -13.05595    7.06836   15.65321
       H   -15.88171   11.22472   15.09714
       O   -16.73437   11.67263   14.97575
      H1   -16.99626   11.91190   15.86848
       H   -13.76723   11.39896   14.90604
       O   -14.13560   10.52700   14.75505
      H1   -14.21736   10.39633   13.80474
       H   -17.64703    8.29815   18.64278
       O   -18.43200    8.28283   19.25589
      H1   -18.92577    9.08633   19.04457
       H   -14.77685   -1.17525   12.85154
       O   -14.37161   -0.32536   13.03591
      H1   -13.49472   -0.43394   12.56083
       H   -16.58632   12.02209   11.44349
       O   -16.87863   11.17784   11.76566
      H1   -17.13244   11.26137   12.66826
       H   -19.28668   -1.79038   17.56244
       O   -19.08685   -0.95895   17.22021
      H1   -19.62741   -0.36887   17.76285
       H   -13.12201    1.61784   19.27431
       O   -13.01389    0.68598   19.01896
      H1   -13.70677    0.10788   19.47520
       H   -13.17937    5.15813   16.66315
       O   -12.78885    5.93261   17.07550
      H1   -11.92275    5.51392   17.30099
       H   -12.42113   10.89760   18.11955
       O   -12.76013   11.76410   18.36018
      H1   -12.08595   12.11004   18.93434
       H   -15.36291    6.31658   12.76540
       O   -15.10093    5.84585   13.54774
      H1   -14.39050    6.35093   14.02835
       H   -10.05626    8.49046   15.85494
       O   -10.09095    7.52392   16.13880
      H1   -10.63201    7.22980   15.38493
       H   -16.49657    0.48810   18.16940
       O   -16.88988   -0.06550   18.87230
      H1   -17.53343   -0.68931   18.47832
       H   -13.50403    4.20085   19.46175
       O   -12.67317    3.68604   19.69667
      H1   -11.93132    4.06151   19.17627
       H   -18.93043    8.84919   15.25014
       O   -18.17234    9.10118   14.74302
      H1   -18.05403   10.00357   14.98875
       H   -18.95379    6.98859   12.20621
       O   -18.74283    7.91592   12.25410
      H1   -18.51672    8.21946   13.18540
       H   -17.73988   11.69049   18.20536
       O   -18.37276   11.57928   17.45098
      H1   -18.88102   12.37899   17.41689
       H   -18.29899   -0.50344   12.08383
       O   -17.91547   -1.16206   12.62232
      H1   -17.78111   -0.68638   13.46504
       H   -15.09252    4.36668   16.34126
       O   -14.51978    3.69730   15.97078
      H1   -14.95498    3.30647   15.24940
       H   -16.58251   -0.52777   15.31989
       O   -17.50642   -0.36509   15.16223
      H1   -17.99850   -0.57815   15.97551
       H   -10.12629    3.47662   18.21346
       O   -10.35546    4.43595   18.14670
      H1    -9.73071    4.82163   18.74255
       H   -14.81001    2.31623   16.99368
       O   -15.01700    1.53819   17.51525
      H1   -14.15970    1.18748   17.88473
       H   -14.92893    0.13902   16.42130
       O   -14.91535   -0.69582   15.87578
      H1   -14.60403   -0.39689   15.03519

