111
frame 3 | Written by MDAnalysis XYZWriter (release 2.4.3)
       H   -11.62253   -7.60495   17.89701
       O   -12.42421   -8.01361   18.21232
      H1   -12.75430   -7.64922   19.01014
       H   -12.90737    2.79886   17.11569
       O   -12.00796    2.94714   16.74374
      H1   -11.38768    2.88828   17.52172
       H   -14.38362   -0.62067   14.68882
       O   -13.43635   -0.88598   14.65376
      H1   -13.29569   -1.74727   14.27100
       H    -8.04375   -4.66964   18.11989
       O    -8.02632   -4.37880   19.03229
      H1    -7.33357   -4.96337   19.42737
       H   -10.66404   -2.88920   15.99691
       O   -10.46858   -3.18630   16.88008
      H1   -10.87955   -4.05192   16.78354
       H    -8.01663   -3.67526   13.32384
       O    -7.29321   -4.00075   13.97484
      H1    -6.99278   -4.82474   13.44835
       H    -7.86407    2.68015   14.98576
       O    -6.95147    3.13674   15.12150
      H1    -7.00992    3.79721   14.33706
       H   -16.68806   -0.52680   13.95221
       O   -16.21107   -0.20643   14.76121
      H1   -16.34214   -0.93333   15.43387
       H   -17.36130   -2.29049   19.61468
       O   -17.90171   -1.60621   19.20764
      H1   -18.67717   -2.08027   18.92226
       H   -14.64467    3.26320   18.18901
       O   -14.70535    2.43719   17.60724
      H1   -14.42889    1.74433   18.20339
       H   -13.93100    5.47738   17.00776
       O   -13.35632    6.19385   17.28500
      H1   -12.55241    6.07505   16.73358
       H   -10.65689   -0.68019   19.23190
       O   -11.32254   -0.03549   19.48897
      H1   -12.05936   -0.25193   18.88913
       H    -8.32207   -0.34045   18.28084
       O    -7.87916    0.07500   17.54720
      H1    -7.08084   -0.39512   17.31028
       H    -9.94100    1.81877   18.99988
       O    -9.86401    2.45947   18.28406
      H1    -8.95488    2.75560   18.36448
       H   -14.92534    5.34750   19.30942
       O   -14.20591    4.65500   19.32652
      H1   -13.50157    4.98088   18.85291
       H    -5.44231    2.05076   14.84653
       O    -4.61124    1.63374   15.19823
      H1    -4.30508    2.29883   15.80506
       H   -14.53155   -6.27196   19.23048
       O   -15.35281   -6.67950   18.87941
      H1   -15.94577   -5.91260   18.75087
       H   -13.51890   -6.77355   16.78244
       O   -14.07154   -6.15195   16.25410
      H1   -15.04824   -6.32536   16.42486
       H   -12.49576   -3.88655   14.11099
       O   -11.86587   -3.21633   14.39141
      H1   -11.49693   -2.75618   13.66575
       H   -12.93679   -1.30216   16.52840
       O   -12.74466   -1.52858   17.46332
      H1   -12.02641   -2.23352   17.44743
       H   -16.39657   -2.88402   16.69127
       O   -16.84884   -2.75220   15.86902
      H1   -17.81948   -2.62460   16.11552
       H    -9.09534   -1.55757   15.68793
       O    -9.50454   -1.24103   14.91832
      H1    -9.57273   -0.30845   14.92579
       H    -7.02904    1.48470   20.44268
       O    -6.91061    1.69296   19.46120
      H1    -6.95263    0.86248   18.96927
       H    -8.03253   -4.83965   15.57927
       O    -7.86621   -5.41501   16.28759
      H1    -7.22054   -6.10991   16.02954
       H    -9.64715   -6.96531   18.15528
       O   -10.06813   -6.77451   17.28024
      H1    -9.30897   -6.48633   16.75042
       H   -10.05087    1.97981   15.04607
       O    -9.19715    1.54364   15.19684
      H1    -9.18527    1.22884   16.14467
       H    -5.64093   -1.73653   15.74394
       O    -5.56008   -1.00621   16.36213
      H1    -5.16630   -0.27544   15.88885
       H   -10.47036   -2.46235   11.70177
       O   -11.19045   -1.81732   11.62096
      H1   -10.78610   -0.99174   11.82820
       H   -11.16306    0.95436   11.53141
       O   -10.46970    0.69840   12.13187
      H1   -10.77659    0.85154   13.01819
       H    -2.59723   -1.93229   18.28476
       O    -3.47046   -2.37035   18.12449
      H1    -3.90517   -1.73913   17.56144
       H   -16.17455    5.22754   15.62988
       O   -15.28316    4.82657   15.83871
      H1   -15.45297    3.99482   16.26467
       H   -11.44585    4.50382   16.00716
       O   -11.31719    5.36415   15.57083
      H1   -11.71650    5.42565   14.68190
       H   -18.14880    3.20478   17.97145
       O   -17.58169    2.33656   18.02840
      H1   -16.67844    2.48849   17.69115
       H    -6.28818    3.44272   18.03389
       O    -6.18037    4.22202   17.43999
      H1    -6.50865    3.89379   16.59810
       H   -14.44822   -4.41000   17.03144
       O   -14.54783   -3.65747   17.63546
      H1   -13.88783   -2.98549   17.40047
       H   -13.71001   -5.43224   14.65192
       O   -13.67869   -5.04760   13.75425
      H1   -14.56477   -4.66247   13.68305
       H   -12.27098    2.18745   15.10528
       O   -12.22297    1.76049   14.26254
      H1   -12.81184    1.02151   14.30919

