111
frame 1 | Written by MDAnalysis XYZWriter (release 2.4.3)
       H     9.57358    7.40851  -11.20187
       O     9.65873    8.01550  -10.49759
      H1     9.96299    7.46150   -9.74861
       H    16.16039    8.23970   -5.97537
       O    15.56120    8.66690   -6.64840
      H1    14.67112    8.42567   -6.49988
       H    16.80882   14.26557   -6.82960
       O    16.33296   14.68148   -6.11521
      H1    15.37322   14.55307   -6.31519
       H    11.92743    4.33361   -5.80018
       O    12.19080    4.34850   -4.84477
      H1    12.76426    5.14698   -4.75362
       H    15.46878   10.13184   -3.13051
       O    15.71637   11.09805   -3.26755
      H1    15.06486   11.57283   -2.72105
       H    13.63171   12.08925  -10.75454
       O    13.98917   12.96733  -10.94345
      H1    13.43891   13.64882  -10.55750
       H    14.75709    9.42863   -8.50333
       O    14.51661    9.61054   -9.40208
      H1    13.73441    9.07891   -9.59665
       H    14.81815   11.66343   -8.85065
       O    15.08367   12.22937   -8.10474
      H1    14.99473   13.15411   -8.35322
       H     7.41138    9.48983   -4.85591
       O     7.01542   10.12097   -4.23983
      H1     6.07243    9.99542   -4.34352
       H    18.81965   11.30350   -4.27526
       O    18.38513   11.44262   -3.41241
      H1    17.47913   11.48533   -3.59494
       H    14.74672    3.20682   -3.62161
       O    15.23983    3.90107   -3.20668
      H1    15.51419    4.37896   -3.99708
       H    10.86283    8.35214   -1.68608
       O    10.50804    9.23694   -1.47944
      H1    10.75475    9.61059   -0.60376
       H    17.15188    4.27869   -5.44871
       O    16.49754    4.96157   -5.30292
      H1    17.09306    5.69263   -5.10533
       H    10.94088   12.67310   -9.83900
       O    10.15317   13.34583   -9.91352
      H1    10.05912   13.56847  -10.84332
       H    12.03365   10.67610   -9.98034
       O    12.08277   11.46400   -9.35630
      H1    11.46400   11.20129   -8.64325
       H    12.07767    9.60304  -12.21403
       O    11.59332    9.81499  -11.40358
      H1    11.00358    9.10812  -11.16029
       H    19.04427   10.86395   -7.06372
       O    18.29709   10.64816   -7.67593
      H1    17.68042   10.15590   -7.15941
       H    12.73695   11.09684   -2.94938
       O    12.28511   10.34012   -3.35208
      H1    11.56161   10.19022   -2.69556
       H    10.08116    8.08858   -7.46311
       O    10.47862    7.36023   -7.97949
      H1     9.86392    6.59786   -7.93491
       H    11.60736   10.17935   -6.19426
       O    11.10787   10.56686   -6.95940
      H1    10.43220   11.06564   -6.46156
       H     8.94500   12.88278   -5.04976
       O     9.87426   12.63572   -5.33324
      H1    10.14661   13.40288   -5.83601
       H     8.53804    7.77578   -5.71041
       O     7.96230    8.40748   -6.17582
      H1     7.38753    7.92954   -6.77003
       H    12.44635    6.42270   -2.61804
       O    11.64661    6.91708   -2.47306
      H1    11.11983    6.71850   -3.24072
       H    17.02134    7.77576   -9.80600
       O    17.05260    8.46767  -10.50889
      H1    16.16336    8.86882  -10.28006
       H    14.87916   11.57615   -4.91958
       O    14.14158   11.69014   -5.53030
      H1    14.56836   11.91812   -6.37337
       H    18.32861    7.65599   -6.38743
       O    17.78098    7.49788   -5.60828
      H1    18.33393    7.97893   -4.97414
       H    13.73229    9.88600   -5.78658
       O    13.09701    9.17221   -5.76609
      H1    12.78993    9.30360   -4.84517
       H     7.87310    6.72348   -2.26681
       O     7.48395    7.16111   -3.07710
      H1     7.92258    8.08998   -3.11413
       H    13.30796   13.56348   -2.54740
       O    13.64712   12.88936   -1.98698
      H1    13.18090   12.95139   -1.13039
       H    16.28621    7.52282   -0.20638
       O    15.47017    7.97188   -0.36263
      H1    14.84203    7.31818   -0.71016
       H    13.66415    9.20685   -3.08091
       O    14.56470    8.86198   -2.95511
      H1    14.55731    8.61363   -2.01311
       H    14.80014    6.27157   -5.14300
       O    14.06548    6.46787   -4.48755
      H1    14.28170    7.33059   -4.08267
       H    12.62706    4.93616   -7.86322
       O    11.88855    4.39913   -7.56950
      H1    11.52228    4.17588   -8.40869
       H    12.14026    7.40288   -9.18147
       O    12.91360    7.32310   -9.78735
      H1    13.55700    6.85447   -9.28002
       H    15.61821    6.96477   -7.55596
       O    15.07162    6.35866   -8.14364
      H1    15.57674    5.53896   -8.20322
       H     9.95969    6.05801   -4.79118
       O    10.08121    7.01266   -4.88427
      H1    10.50060    7.14937   -5.77565
       H    13.22021   13.31348   -5.12006
       O    12.73201   14.13014   -5.03271
      H1    12.12319   13.99593   -4.32030

