111
frame 4 | Written by MDAnalysis XYZWriter (release 2.4.3)
       H    18.71716    3.67064   -6.17345
       O    19.27833    3.38347   -5.48398
      H1    19.58665    2.49423   -5.69223
       H    16.46722    9.18091   -6.84237
       O    15.95997    9.92076   -7.18871
      H1    15.12817   10.06313   -6.76317
       H    19.40075    5.04112  -10.23581
       O    19.87452    5.81268   -9.94620
      H1    19.23761    6.49185  -10.29393
       H    15.84938    9.65559   -8.92576
       O    15.56804    9.74043   -9.82875
      H1    15.25441   10.63737   -9.82375
       H    12.09552   -0.05201  -10.68106
       O    11.74368   -0.29554   -9.80260
      H1    10.85517   -0.71143   -9.94745
       H    14.76832    2.79222   -6.24342
       O    14.71076    2.98137   -5.28003
      H1    14.69565    3.98787   -5.30239
       H    13.19453    4.75798  -13.05247
       O    13.45236    4.32302  -12.24944
      H1    12.91176    4.88557  -11.68987
       H    15.95200    6.58765   -5.91660
       O    15.33568    5.95115   -5.48509
      H1    15.92489    5.73609   -4.73751
       H    17.78355   -0.39306  -15.54756
       O    17.31951    0.16734  -14.92147
      H1    17.10200    0.94157  -15.46154
       H    11.84737    5.75647  -14.46003
       O    12.81371    5.62693  -14.53442
      H1    12.85145    5.24381  -15.41771
       H    14.80611   -2.19130  -11.93381
       O    14.40783   -2.14980  -11.06843
      H1    13.41681   -2.36088  -11.27788
       H    18.03574   -2.53453  -11.40859
       O    17.97092   -3.42396  -10.99089
      H1    17.15796   -3.38254  -10.48653
       H    18.21722    2.99728  -11.03576
       O    17.92051    3.64330  -10.41057
      H1    17.16384    4.10445  -10.75968
       H    17.52125    5.89837  -12.75098
       O    18.20642    6.52075  -12.92359
      H1    18.99244    5.99564  -13.16425
       H    16.78819   -1.40943   -9.07792
       O    16.34064   -0.85589   -9.70999
      H1    15.55961   -1.35349  -10.00050
       H    15.28153    8.41242  -11.09286
       O    15.02484    7.92169  -11.90767
      H1    15.69887    8.23620  -12.53602
       H    16.24308    3.37493   -4.24912
       O    17.03755    3.59889   -3.66219
      H1    17.82195    3.24158   -4.07705
       H    18.03593    4.96340  -15.72567
       O    18.43146    4.09949  -15.49995
      H1    17.76138    3.38545  -15.61330
       H    15.12166    1.68156  -13.76961
       O    14.75502    0.85109  -13.43941
      H1    13.79462    0.82452  -13.60486
       H    11.15896    5.59725   -9.94563
       O    11.85246    5.80519  -10.61013
      H1    12.53077    6.16259  -10.01256
       H    16.43623    3.33099  -13.96356
       O    15.74344    3.07070  -14.58169
      H1    14.94964    3.57906  -14.60010
       H    17.77596    9.00660  -10.49050
       O    18.40933    8.31421  -10.58326
      H1    18.32137    7.89011  -11.48772
       H    17.78778    7.66377   -7.00545
       O    17.46554    7.76427   -6.09624
      H1    18.18151    8.11571   -5.52745
       H    16.41328    0.28348   -5.83219
       O    16.76649    0.14711   -4.94016
      H1    15.88179   -0.08360   -4.55111
       H    16.24711    6.40807  -16.72554
       O    17.02759    6.82459  -16.28099
      H1    16.70336    7.30635  -15.53728
       H    13.86252    3.03671   -8.66612
       O    14.63234    3.22211   -8.18108
      H1    15.13104    2.35951   -8.20074
       H    16.06659    4.14395   -7.88412
       O    17.03600    4.40238   -7.78923
      H1    17.44247    4.07493   -8.61876
       H    15.87854    0.20736   -8.34030
       O    15.56810    0.80270   -7.60329
      H1    14.63555    0.47247   -7.53296
       H    18.49359    0.28650  -12.06134
       O    18.37304   -0.60220  -11.73483
      H1    17.85386   -0.52471  -10.92981
       H    16.12681   -2.30590  -14.03341
       O    15.29645   -2.09061  -13.66858
      H1    15.20659   -1.12096  -13.85968
       H    15.72886    6.17818  -12.03848
       O    16.02344    5.26948  -11.96373
      H1    15.22274    4.77585  -12.05511
       H    12.33234    3.34136  -10.11609
       O    12.09243    2.81087   -9.35221
      H1    12.05248    1.87480   -9.67570
       H    13.57987    7.85873   -8.67590
       O    13.71819    6.85701   -8.65593
      H1    14.67999    6.73494   -8.67671
       H    17.26657   -2.25742   -6.51262
       O    17.34327   -2.34447   -7.52492
      H1    16.90167   -3.15119   -7.78254
       H    17.75624    7.92443  -14.03998
       O    16.97337    8.52149  -13.97438
      H1    17.05626    9.29733  -14.60686
       H    17.33406    7.11807   -9.31913
       O    16.80392    7.04401   -8.55035
      H1    16.91213    6.13553   -8.26772
       H    17.85546    1.20242  -13.52098
       O    18.55876    1.68818  -13.03544
      H1    19.34922    1.61287  -13.61180

