111
frame 5 | Written by MDAnalysis XYZWriter (release 2.4.3)
       H   -12.68896   19.59370  -17.32192
       O   -12.08778   19.21454  -18.04198
      H1   -11.23116   19.61917  -17.89864
       H    -4.76158   14.55010  -15.52600
       O    -3.90662   14.99115  -15.70955
      H1    -4.00382   15.27321  -16.62153
       H    -3.33906   16.99173  -12.86014
       O    -3.02455   17.79172  -13.27393
      H1    -3.10408   17.64788  -14.22218
       H   -15.38039   13.97376  -14.02217
       O   -16.33104   13.84129  -13.81083
      H1   -16.65674   14.71931  -13.92151
       H   -10.14996   16.72316   -9.38420
       O   -10.52282   17.05519  -10.25236
      H1    -9.79112   16.98599  -10.91986
       H    -3.61428   16.64729  -18.81491
       O    -3.47622   15.87480  -18.25603
      H1    -4.07969   15.16816  -18.47698
       H    -6.47419   11.89195  -16.45793
       O    -6.13436   11.42917  -15.69821
      H1    -6.48825   10.53229  -15.59532
       H    -1.70886   17.32875  -15.97264
       O    -2.54132   17.79028  -15.87517
      H1    -3.12602   17.35132  -16.51610
       H   -16.25966   17.73125  -18.78372
       O   -16.03327   17.24270  -17.96931
      H1   -16.15489   16.29931  -18.21467
       H   -11.44976   15.38415  -14.45864
       O   -11.01674   14.51614  -14.16864
      H1   -10.30798   14.60759  -14.79275
       H    -6.42726   17.86661  -18.54148
       O    -6.49084   18.62387  -17.91542
      H1    -6.61472   19.38946  -18.47525
       H   -14.72484   20.20596  -16.41366
       O   -14.06138   19.61014  -16.04290
      H1   -14.50864   18.88678  -15.61685
       H    -8.97114   17.84875  -13.31332
       O    -8.73902   17.70172  -12.39182
      H1    -7.87577   17.25407  -12.27621
       H   -12.68114   13.41228  -14.17372
       O   -13.55365   12.95569  -14.25244
      H1   -13.69662   12.76793  -15.20587
       H    -5.56390   15.93226  -11.99328
       O    -6.28686   16.47415  -12.41471
      H1    -5.80615   16.80138  -13.20798
       H    -6.86824   18.42632  -16.20046
       O    -7.12063   18.21346  -15.27232
      H1    -7.98041   18.67968  -15.13083
       H   -14.68474   16.38450  -12.68532
       O   -14.89498   15.81753  -11.88575
      H1   -15.62214   15.21078  -12.12279
       H   -12.29136   16.31017  -17.86399
       O   -11.55346   15.85858  -17.45901
      H1   -11.57999   14.92761  -17.69205
       H    -6.76352   16.97998   -8.49134
       O    -7.06873   17.58381   -9.16006
      H1    -6.34379   18.25022   -9.12355
       H   -11.41381   12.55633  -18.96757
       O   -11.99815   13.28506  -18.81121
      H1   -12.15706   13.61678  -19.69886
       H   -14.70655   19.24845  -11.63363
       O   -15.53102   18.89282  -12.04851
      H1   -15.99963   19.76223  -12.15368
       H    -8.01293   16.57952  -15.80139
       O    -8.52184   15.78216  -15.66679
      H1    -7.94722   15.18878  -15.03803
       H    -7.64388   12.98655  -18.26157
       O    -6.96637   13.38646  -17.62706
      H1    -7.34837   14.16443  -17.29917
       H   -10.21139   16.26763  -18.65930
       O    -9.61343   16.57623  -19.34256
      H1   -10.20124   17.16880  -19.89454
       H    -6.30141   13.55214  -13.55850
       O    -6.25607   14.40424  -14.01945
      H1    -6.50288   15.12519  -13.43157
       H   -18.95885   17.30039  -17.17297
       O   -18.36163   17.77376  -16.53617
      H1   -17.51787   17.62087  -17.00882
       H   -11.39384   16.96629  -15.44275
       O   -11.90789   17.23325  -14.68046
      H1   -12.82881   17.19912  -14.94670
       H   -13.47013   13.41770  -17.87388
       O   -14.07807   13.19144  -17.15596
      H1   -14.99272   13.38498  -17.50287
       H   -10.60363   18.28774  -14.54536
       O    -9.78403   18.81147  -14.56542
      H1    -9.80806   19.60219  -14.00050
       H   -10.34441   19.93015  -11.51742
       O   -10.93413   19.77417  -10.77368
      H1   -10.94093   18.84530  -10.60255
       H   -11.13605   14.82252  -12.47998
       O   -11.25737   14.84554  -11.49613
      H1   -11.11203   15.80173  -11.18953
       H   -15.67049   17.14417  -14.25809
       O   -14.75333   17.45301  -14.18689
      H1   -14.89039   18.18514  -13.57910
       H    -8.09903   12.17114  -15.00579
       O    -8.99061   12.49059  -15.10285
      H1    -9.36435   12.57877  -14.24823
       H    -9.20770   11.85502  -18.79827
       O    -8.60141   12.30581  -19.40971
      H1    -8.16924   11.46559  -19.74702
       H   -10.20015   13.59192  -10.77932
       O    -9.39889   13.08018  -10.38657
      H1    -8.75367   13.75865  -10.28342
       H    -9.55278   19.43530  -16.42556
       O    -9.38343   19.79115  -17.32000
      H1    -8.60727   19.29832  -17.62943
       H    -5.71160   14.99307  -19.88106
       O    -5.33723   14.17472  -19.55584
      H1    -6.07512   13.87484  -18.97107

