111
frame 10 | Written by MDAnalysis XYZWriter (release 2.4.3)
       H    -3.32067    4.58016   12.60245
       O    -3.42130    3.64775   12.25649
      H1    -4.16241    3.47259   12.90937
       H     3.10940   10.38474   17.52593
       O     2.87802    9.47093   17.39863
      H1     3.72629    9.04938   17.27660
       H     2.99934    3.66040    9.84047
       O     3.15473    4.56369   10.18693
      H1     2.38769    4.66461   10.78716
       H     5.83848    5.13515   17.93491
       O     5.50990    5.44229   17.02232
      H1     4.89983    4.75379   16.72375
       H    -1.36131    3.23905   13.59324
       O    -1.13900    3.12869   14.50968
      H1    -0.23808    2.76166   14.50359
       H    -3.02770    2.02971   17.90165
       O    -2.85095    2.95796   18.02360
      H1    -2.95890    3.46980   17.22071
       H    -1.60057    3.07080    9.69547
       O    -1.88175    3.15424    8.74403
      H1    -2.81788    3.04323    8.78452
       H     3.76700    6.41248   14.24836
       O     4.14178    7.20876   14.59437
      H1     3.30705    7.66340   14.77367
       H     1.80231    5.39071   13.50414
       O     2.61804    4.97675   13.83912
      H1     2.25028    4.61122   14.66480
       H    -1.88066    6.38586   10.01490
       O    -1.79820    6.45085   10.99443
      H1    -2.25562    7.22662   11.25178
       H     1.03303    1.04848   15.99168
       O     1.11479    1.97649   15.73604
      H1     0.76601    2.52995   16.43313
       H     0.19022    9.35040   11.00196
       O    -0.31385   10.18095   11.13556
      H1    -0.69950   10.45413   10.31428
       H     5.28768    7.39402   13.14678
       O     5.58930    6.96966   12.32526
      H1     6.27524    7.48169   11.82085
       H    -1.80308    9.38860   12.14282
       O    -2.71731    9.17921   12.52174
      H1    -2.69844    9.55374   13.39240
       H    -4.75883    8.44392   10.17949
       O    -4.25751    9.29253   10.18074
      H1    -4.08853    9.42876   11.13510
       H    -1.85699    4.80673    8.28125
       O    -1.93253    5.78875    8.24433
      H1    -1.37798    6.11491    7.48894
       H     2.24023    9.98526   14.30435
       O     1.94869    9.23455   14.88811
      H1     2.13143    9.45504   15.81941
       H    -6.70096    7.48457   15.23731
       O    -6.15866    7.86780   14.55203
      H1    -5.32391    8.12296   15.05141
       H    -1.55343    8.11033   17.90912
       O    -1.69438    7.76764   16.99534
      H1    -0.85225    7.72183   16.58230
       H    -1.74200    4.77733   15.63973
       O    -2.42947    5.23321   16.21353
      H1    -2.03548    5.99421   16.64615
       H     1.94578    7.75435   10.40641
       O     1.87339    8.11624   11.33068
      H1     1.60600    7.33891   11.81055
       H     0.98209    6.56818   16.20901
       O     0.59155    7.13834   15.55185
      H1     1.18245    7.89387   15.34154
       H     0.92540   11.58890   13.33439
       O    -0.00232   11.77181   13.31451
      H1    -0.25640   11.41324   12.45715
       H     1.84631    5.36751   17.79185
       O     1.03191    5.19908   17.24433
      H1     0.42636    4.81824   17.89605
       H    -3.80796   12.02138   14.55834
       O    -3.31538   11.29185   14.93824
      H1    -2.42742   11.61115   15.08200
       H     2.99228    2.47385   15.91248
       O     3.86783    2.79795   16.15889
      H1     3.94258    2.83504   17.06940
       H    -0.19714    5.99510   12.12659
       O     0.55322    6.13208   12.74860
      H1     0.15148    6.51187   13.59453
       H     3.57649    8.94603   11.87511
       O     4.20852    9.57311   11.68071
      H1     4.85003    9.60272   12.42932
       H     3.30182    7.38079    8.49937
       O     2.39865    7.13091    8.25603
      H1     2.13068    7.72951    7.55509
       H     4.23441    5.77032    9.68098
       O     4.70770    6.63121    9.51771
      H1     5.02625    6.93708   10.40460
       H     0.09839   10.64255   15.60631
       O    -0.54666   11.33443   15.86043
      H1    -0.52047   11.79658   15.03783
       H    -2.44895    1.81783   14.94362
       O    -3.03094    0.98483   14.78377
      H1    -3.11138    0.57969   15.69778
       H    -3.01951    5.75841   14.59794
       O    -3.15716    6.16747   13.70573
      H1    -3.48890    7.08110   13.81555
       H     3.55187    2.20723   12.00494
       O     2.70836    2.34223   12.46592
      H1     2.70079    3.32164   12.61540
       H     3.28306   10.72691   12.61700
       O     2.72847   11.32172   13.13336
      H1     3.24886   12.08009   13.36554
       H    -1.96846    3.45486   11.46609
       O    -1.16928    2.92543   11.32177
      H1    -1.31166    2.01947   11.59509
       H    -3.93272    9.65197   15.61401
       O    -4.00724    8.85240   16.10232
      H1    -3.08711    8.61460   16.34672

