111
frame 7 | Written by MDAnalysis XYZWriter (release 2.4.3)
       H    -6.05846   -9.00898    5.79936
       O    -5.98124   -8.33867    6.56576
      H1    -6.91677   -8.11016    6.73742
       H    -6.15090  -16.67104   10.08300
       O    -5.80917  -16.23383    9.31791
      H1    -5.25420  -16.98861    8.97176
       H    -7.73019   -9.68431    2.95431
       O    -8.23913   -9.88989    2.15674
      H1    -7.68371   -9.34529    1.48704
       H    -7.06659   -7.13333    9.77285
       O    -8.01272   -7.20299    9.69105
      H1    -8.22073   -8.14754    9.66391
       H    -7.48446  -16.01385    6.10737
       O    -6.73278  -16.20029    5.56445
      H1    -7.13088  -16.55331    4.74012
       H    -8.29231  -12.06932    6.46009
       O    -8.72917  -11.92533    5.62224
      H1    -9.27020  -12.71841    5.47566
       H    -9.56930  -10.03125    9.69507
       O    -8.88867   -9.75251    9.06267
      H1    -8.32312  -10.46937    8.79412
       H    -8.73795  -12.50606   12.07228
       O    -8.25315  -12.42751   12.92601
      H1    -7.43935  -11.85023   12.79320
       H   -11.46502  -10.37778   10.94770
       O   -10.54635  -10.60921   10.92113
      H1   -10.57210  -11.39544   10.32080
       H    -5.88079  -12.78917   13.68013
       O    -5.41916  -13.53211   14.20573
      H1    -5.74003  -14.38855   13.85945
       H   -10.49663  -14.48147    4.29080
       O   -10.34218  -13.56769    4.09371
      H1    -9.95094  -13.52059    3.21660
       H   -11.20612  -14.56424    7.58514
       O   -10.52263  -15.02339    8.05624
      H1   -11.02421  -15.64824    8.59383
       H    -3.55748  -10.80921    5.37829
       O    -3.24746   -9.94872    5.01269
      H1    -3.19368  -10.14481    4.05946
       H   -11.74957  -10.98821   13.53486
       O   -10.78813  -11.23173   13.60610
      H1   -10.41221  -11.29408   12.69580
       H    -4.13705  -15.68190   10.43110
       O    -3.71127  -15.71862   11.24478
      H1    -2.88380  -16.22925   11.20411
       H    -4.94896   -7.51439   10.97844
       O    -5.30296   -7.09488   10.23188
      H1    -4.74406   -7.47820    9.52838
       H    -9.45758  -16.86710    5.10950
       O    -9.71816  -16.02364    5.43451
      H1   -10.34826  -16.11884    6.19165
       H    -3.98018  -12.29301   10.53288
       O    -4.49710  -12.52189   11.33125
      H1    -4.80753  -13.42200   11.13985
       H    -5.26644  -11.93651    1.72804
       O    -5.15118  -11.95236    2.70420
      H1    -5.58577  -12.71063    3.15089
       H   -12.43923  -11.82221    6.67067
       O   -12.61600  -11.11382    6.06453
      H1   -11.80083  -10.58247    5.99544
       H    -9.71150  -10.33817    5.81875
       O   -10.37870   -9.65247    5.84759
      H1   -10.54052   -9.45920    4.90696
       H    -5.33573  -11.46129   12.34519
       O    -5.95648  -10.86181   12.86267
      H1    -5.50757  -10.75748   13.70016
       H    -4.19311  -15.36220    6.46709
       O    -4.00965  -14.50733    6.05191
      H1    -4.76002  -14.47753    5.44002
       H    -6.96560  -12.75180    4.87677
       O    -6.39585  -13.49681    4.56949
      H1    -6.68677  -14.23150    5.13534
       H    -8.62296  -18.37860    7.04753
       O    -7.98236  -18.52288    7.77078
      H1    -7.39954  -17.80468    7.97556
       H   -11.42769   -7.84306    8.11072
       O   -12.19896   -7.49168    7.75737
      H1   -11.96861   -7.28624    6.75383
       H    -3.03881   -8.46141    8.05510
       O    -3.90072   -8.46012    8.49002
      H1    -4.50365   -8.56537    7.73796
       H   -10.10421  -13.74251    9.26150
       O    -9.95741  -13.17277    9.98639
      H1   -10.30730  -13.65648   10.76560
       H    -5.35837   -8.97251   12.65419
       O    -4.67929   -8.31368   12.45999
      H1    -4.65925   -7.71980   13.17560
       H    -8.44138  -14.78622    8.12861
       O    -7.54675  -14.74558    7.80540
      H1    -7.03543  -15.33926    8.35040
       H    -9.36456   -7.32016   12.35709
       O    -9.47436   -8.10595   12.83678
      H1    -9.11547   -8.76835   12.22926
       H   -13.24015  -13.26017    8.05605
       O   -12.70613  -13.42502    7.27531
      H1   -13.34902  -13.68255    6.61971
       H    -4.25434  -11.50954    7.97704
       O    -4.62636  -11.66346    7.06450
      H1    -4.57275  -12.59494    6.92257
       H    -7.24044  -13.02704    8.31919
       O    -7.25063  -12.07510    8.24100
      H1    -6.39702  -11.93623    7.73691
       H    -5.92683  -10.57186    3.65056
       O    -6.14835   -9.63378    3.92226
      H1    -5.36273   -9.10132    3.69759
       H    -8.91541   -7.58115    8.04521
       O    -8.98233   -7.41202    7.10891
      H1    -9.36685   -8.23528    6.82706
       H    -2.17378  -11.35365    9.21173
       O    -3.16105  -11.23514    9.30664
      H1    -3.25314  -10.24027    9.23440

