111
frame 11 | Written by MDAnalysis XYZWriter (release 2.4.3)
       H     8.27023   -0.05814    0.62983
       O     8.70101   -0.51324   -0.12451
      H1     9.25771   -1.23996    0.27667
       H     5.57360   -0.54559    2.88422
       O     6.53893   -0.66218    2.71057
      H1     6.58240   -1.42752    2.08174
       H     5.11438   -1.81659   -2.79982
       O     4.49695   -2.55279   -2.71707
      H1     4.94294   -3.38944   -2.93568
       H    10.01715   -2.06047   -2.76865
       O    10.92456   -2.09385   -3.10525
      H1    11.40294   -2.25599   -2.27248
       H     6.92337    3.51825    4.52790
       O     6.81396    2.73250    5.03994
      H1     7.60310    2.55584    5.55173
       H     7.40275   -3.51404    0.64210
       O     6.86363   -3.18161    1.36633
      H1     6.01853   -2.95501    0.87897
       H     2.04458    4.88230    1.35523
       O     2.38979    4.00704    1.43220
      H1     1.82969    3.49735    0.83920
       H    12.99661   -3.32302   -1.30666
       O    12.74432   -2.41077   -1.16907
      H1    11.98949   -2.37079   -0.51819
       H     5.98162   -1.74299    5.91527
       O     5.17326   -1.25083    5.85372
      H1     5.17386   -0.70501    6.66013
       H    10.63714    4.56592   -2.67525
       O    11.11605    5.37442   -2.63355
      H1    11.83007    5.30980   -1.99068
       H     5.64288    3.28256    6.35463
       O     5.04342    3.30340    7.10160
      H1     5.46628    3.93378    7.64791
       H     9.11277   -2.35246    4.10869
       O     9.04316   -1.45804    3.79692
      H1     8.17504   -1.42831    3.43861
       H     7.58822    2.93803    0.38929
       O     7.29936    3.80189   -0.01818
      H1     6.41954    4.10384    0.32293
       H     4.64623    5.69447   -2.43504
       O     4.43026    4.79712   -2.19117
      H1     4.46385    4.87564   -1.22232
       H     6.50560    0.10591   -2.30258
       O     5.56658    0.03243   -2.53029
      H1     5.18539    0.33934   -1.70027
       H    10.95781   -2.18675    1.46271
       O    10.64675   -2.54284    0.62665
      H1    10.20879   -3.41262    0.80800
       H     9.61293    5.40979    3.90037
       O     9.95946    5.79436    4.70366
      H1    10.06234    5.04795    5.35473
       H     3.89109   -1.09512    4.56411
       O     3.39768   -0.85570    3.77225
      H1     2.78789   -1.57994    3.54226
       H     9.26246    2.76045    7.13175
       O     9.61205    2.68080    6.24326
      H1    10.07097    1.85587    6.16379
       H     7.29271    5.55153    3.89779
       O     6.82623    4.95924    3.29172
      H1     7.47123    4.92410    2.51500
       H     4.43370    2.21282    2.88872
       O     4.64956    2.04967    1.95625
      H1     5.07112    2.87231    1.58695
       H    11.58207    2.06936   -1.61075
       O    11.32198    2.78119   -1.04052
      H1    10.41141    3.05021   -1.37886
       H    12.70321    0.37781   -2.98851
       O    11.74757    0.61055   -2.91793
      H1    11.28825   -0.22960   -3.04250
       H    10.29838    3.30399    1.84643
       O    10.44358    2.38718    1.55194
      H1    10.76612    2.51796    0.63816
       H     5.28461    1.74358   -3.23617
       O     5.43889    2.53693   -3.75400
      H1     5.19568    3.32503   -3.17596
       H    10.57274   -1.29247    3.29571
       O    11.46859   -1.42850    2.92343
      H1    11.92942   -0.57846    2.93742
       H     8.77860    2.83589   -2.79981
       O     8.99096    3.51334   -2.13151
      H1     8.13481    3.62613   -1.67245
       H     3.99175    4.39084    1.11682
       O     4.86717    4.75013    0.68691
      H1     4.76977    5.72353    0.64941
       H     4.44883   -1.26503    0.02106
       O     4.64452   -2.22254   -0.07124
      H1     4.49986   -2.37519   -1.05222
       H     2.44570    2.11950    2.73249
       O     2.26470    1.71081    3.57680
      H1     2.44460    0.75987    3.50376
       H    12.36605    1.79655    3.48111
       O    12.67445    1.03061    3.94174
      H1    11.91651    0.76499    4.46873
       H     8.67971    0.29349   -3.66142
       O     8.41003   -0.54113   -3.12927
      H1     8.48450   -0.27021   -2.19862
       H     9.08001    2.18913   -4.72925
       O     8.41571    1.84099   -4.06712
      H1     7.61993    2.29770   -4.40752
       H     4.27877    1.06575    0.52903
       O     4.07331    0.54183   -0.27666
      H1     3.27231    0.95415   -0.54860
       H     8.67553    5.16434    0.80091
       O     9.30803    5.18284    1.57526
      H1     9.69587    6.05268    1.59640
       H    10.63254   -0.56566    5.94509
       O    10.58295    0.24160    5.39172
      H1     9.85145   -0.05890    4.80696
       H     8.49679    1.51212    1.83600
       O     7.71099    1.41173    1.30118
      H1     7.09348    0.94332    1.84572

