111
frame 7 | Written by MDAnalysis XYZWriter (release 2.4.3)
       H     4.85303   11.76079   18.74634
       O     4.28507   12.07917   18.01275
      H1     4.82345   11.95291   17.20469
       H    10.49640    7.10633   17.73099
       O    10.97434    6.31202   17.85463
      H1    10.57937    5.50522   17.58535
       H     3.45637   10.53344   18.06865
       O     3.29092    9.56450   18.14967
      H1     4.18423    9.17831   18.18143
       H     4.72393   11.91938   14.86016
       O     5.48724   11.57801   15.37529
      H1     5.91539   10.84233   14.92572
       H    10.24257    9.55947   17.77318
       O     9.80902    8.67335   17.64562
      H1     9.13611    8.69755   18.29828
       H    10.35926    4.30716   16.22165
       O     9.60902    4.16519   16.81375
      H1     9.82688    3.34180   17.33108
       H     8.71573    2.36335   15.87780
       O     8.23773    1.49211   15.94015
      H1     7.64852    1.63721   15.14280
       H     5.93261    5.39356   18.45629
       O     5.42037    6.21658   18.53977
      H1     5.03747    6.30388   17.62438
       H    10.32689   14.01182   17.34789
       O    10.03457   14.82182   17.84363
      H1    10.10912   14.60207   18.75151
       H     3.32295   13.78906   14.50433
       O     3.51098   12.91348   14.24637
      H1     3.93733   13.00074   13.38460
       H     7.56347   12.50918   18.02002
       O     7.59889   11.49829   18.06756
      H1     8.38056   11.35360   18.59076
       H     3.63172    6.32260   16.43891
       O     4.31529    6.82813   16.02010
      H1     3.94624    7.70723   15.92270
       H     0.48070    9.65869   19.52292
       O    -0.05913   10.41538   19.15908
      H1     0.16356   10.40911   18.22873
       H     9.91140    6.75564   14.93110
       O    10.51019    5.97414   14.73635
      H1    10.04352    5.39574   14.09461
       H     6.57469   15.01302   14.03015
       O     7.52592   15.19342   14.37242
      H1     7.77440   14.30254   14.64399
       H    11.13647   13.91804   15.12461
       O    11.04535   13.21441   15.79284
      H1    11.79241   12.61285   15.60833
       H     9.22230    8.54868   16.08656
       O     8.86991    8.30281   15.21720
      H1     8.21556    7.60525   15.43190
       H     4.67848    6.47220   14.16672
       O     5.05252    6.41185   13.28631
      H1     5.54766    7.22836   13.08424
       H     9.25451   12.55131   15.30367
       O     8.38447   12.66113   14.81490
      H1     7.61420   12.38830   15.29667
       H     2.43841    9.48425   15.20081
       O     2.28646    8.76431   15.81614
      H1     2.60667    9.06740   16.66836
       H     7.51538    4.38795   13.77373
       O     7.67588    5.35214   13.66681
      H1     6.75287    5.61689   13.57330
       H     7.91917   14.66063   17.47916
       O     7.13591   14.20002   17.82654
      H1     7.11426   14.62823   18.69071
       H     0.94403    6.13870   15.66499
       O     0.75700    6.68008   14.88409
      H1     1.45268    7.35198   15.00045
       H     2.47138    5.98761   18.15547
       O     2.28004    5.63992   17.24683
      H1     2.71970    4.71880   17.29101
       H     9.05453   12.46688   12.92541
       O     9.37009   12.57596   12.01803
      H1     9.87004   11.82993   11.84050
       H     2.58221    2.95858   16.62522
       O     3.48564    3.28654   16.50338
      H1     4.09507    2.73743   16.93527
       H     2.77015    7.33655   12.36912
       O     2.97920    8.26606   12.12495
      H1     3.89563    8.31632   12.30309
       H     8.14530    4.41488   18.01234
       O     7.42424    4.19480   18.60561
      H1     7.80754    4.24166   19.46614
       H     9.61849    2.46775   19.64305
       O    10.01029    2.31822   18.76526
      H1    10.86763    1.89599   18.98218
       H    13.22213    7.81378   19.82338
       O    13.40653    7.67983   18.84458
      H1    12.67956    7.12131   18.46126
       H     6.73979    7.05426   19.07324
       O     7.60491    7.46006   19.35869
      H1     7.94591    6.81511   19.97732
       H     6.67581    8.75518   18.26476
       O     6.09867    9.26669   17.68742
      H1     6.57149   10.11325   17.62393
       H    12.46062    7.35014   14.20412
       O    13.38218    7.33146   13.95452
      H1    13.57702    8.05864   13.37372
       H     6.31330    9.13190   12.89610
       O     5.94875    8.74982   12.11519
      H1     5.88559    9.47807   11.47952
       H     2.11425   10.39516   13.10034
       O     1.90585   10.73857   13.98329
      H1     2.56786   11.46859   14.06423
       H     7.25101    8.86802   15.04877
       O     6.29472    9.07080   14.88430
      H1     6.02785    9.22418   15.81631
       H    12.49628   10.80933   18.52117
       O    12.04930   10.09931   18.05045
      H1    12.53028    9.28051   18.28185

