111
frame 1 | Written by MDAnalysis XYZWriter (release 2.4.3)
       H   -14.37732    0.98409   -6.09171
       O   -13.56121    0.46916   -5.98350
      H1   -13.06305    0.64570   -6.74132
       H   -10.39522   -0.57420   -9.04791
       O   -10.36746    0.24325   -9.62317
      H1   -10.98560    0.05245  -10.37215
       H   -17.16904   -1.27878  -11.13651
       O   -16.56447   -1.08097  -11.91575
      H1   -16.68617   -1.82070  -12.48372
       H   -14.78073   -0.13439  -12.17384
       O   -14.20470    0.51320  -12.57651
      H1   -14.36040    0.28253  -13.51905
       H    -9.12746   -1.57939   -7.65802
       O    -9.41596   -2.13705   -8.41563
      H1    -8.73085   -2.03545   -9.14785
       H   -14.32583   -0.89109  -10.05988
       O   -14.24566   -1.85440   -9.99042
      H1   -14.26153   -2.17687  -10.88299
       H    -9.77466    3.65271   -5.90151
       O    -9.33015    2.81846   -6.04979
      H1   -10.00407    2.13341   -5.93890
       H   -12.36427   -5.21067  -10.81334
       O   -13.01663   -4.69892  -10.23300
      H1   -12.50477   -4.08422   -9.63036
       H   -15.67514   -3.96137  -10.96244
       O   -16.18834   -4.66763  -10.53126
      H1   -16.78512   -4.14254   -9.98657
       H    -9.60395   -7.32784   -5.42494
       O    -9.36147   -7.52429   -4.48841
      H1    -9.80267   -6.77428   -4.03698
       H   -14.55841   -2.66007   -5.60380
       O   -14.78311   -2.74528   -6.52910
      H1   -14.57758   -1.89408   -6.98735
       H   -15.70349   -3.99343   -3.76430
       O   -16.14378   -3.15511   -3.60770
      H1   -15.47954   -2.48020   -3.68190
       H   -15.51614   -5.61628   -7.26881
       O   -16.14227   -5.15790   -6.70083
      H1   -15.87360   -4.20557   -6.66721
       H   -12.74025    1.71334   -8.43636
       O   -11.94654    1.68187   -7.82023
      H1   -11.23978    1.48378   -8.42341
       H   -12.29986   -8.81803   -8.26862
       O   -12.01853   -8.09762   -8.82727
      H1   -12.85365   -7.69739   -9.03276
       H   -10.09678   -6.38940   -7.48836
       O   -10.16863   -7.27493   -7.12449
      H1   -10.75027   -7.72372   -7.72062
       H   -12.38534   -0.06540  -11.94427
       O   -11.42536   -0.25440  -12.14007
      H1   -11.28560   -0.08983  -13.07934
       H    -7.64517    1.27717  -11.05649
       O    -8.13561    0.53461  -11.38831
      H1    -8.90048    0.52092  -10.86149
       H   -11.34048   -7.36675  -10.58112
       O   -11.36279   -6.71286  -11.29198
      H1   -11.56403   -7.12136  -12.10779
       H   -13.64914   -0.90586   -3.28814
       O   -13.91642   -1.42263   -4.07445
      H1   -13.78086   -0.86525   -4.86170
       H    -7.43135   -2.77754  -10.74642
       O    -7.46988   -1.94982  -10.24952
      H1    -7.72730   -1.30478  -10.96486
       H    -8.39833   -7.35617  -10.74560
       O    -8.41768   -6.89411   -9.90980
      H1    -7.49363   -7.08596   -9.57577
       H   -11.33105   -2.15818  -12.06301
       O   -10.87185   -3.02119  -11.95590
      H1   -11.16691   -3.57358  -12.67680
       H    -8.19443   -0.68171  -12.86573
       O    -8.34689   -1.57439  -13.20912
      H1    -8.83504   -2.07084  -12.55323
       H   -14.35191   -6.14858   -9.30458
       O   -14.31921   -6.59788   -8.47700
      H1   -13.78460   -6.01184   -7.91595
       H   -12.43812   -4.43883   -4.79950
       O   -12.16672   -3.99271   -3.98463
      H1   -12.88354   -3.34777   -3.78444
       H   -14.39431    1.48742  -10.26981
       O   -14.26724    0.89901   -9.48779
      H1   -14.95364    1.17148   -8.87755
       H    -6.86633   -0.04115   -6.64265
       O    -7.71138   -0.47453   -6.49023
      H1    -7.48461   -1.25713   -5.92917
       H   -11.33121   -2.64347   -8.79854
       O   -12.26667   -2.78662   -8.46358
      H1   -12.90457   -2.23893   -8.97861
       H   -17.02442   -7.15142  -12.46960
       O   -16.11410   -7.10504  -12.25362
      H1   -16.12492   -6.31974  -11.67236
       H    -9.45642   -3.89236   -8.24231
       O    -9.65129   -4.83873   -8.15358
      H1    -9.23186   -5.32980   -8.83617
       H   -12.26904    2.02184   -5.16011
       O   -12.31119    2.84653   -4.69385
      H1   -12.77263    3.47156   -5.31070
       H   -12.96208   -6.14279   -1.85084
       O   -13.23099   -5.22396   -1.98097
      H1   -12.80684   -4.91544   -2.77022
       H    -9.31036   -4.22547  -11.45536
       O    -8.44304   -4.63367  -11.50238
      H1    -8.55533   -5.51534  -11.09334
       H   -10.41885   -0.54255   -4.80464
       O   -10.39047    0.16524   -5.45687
      H1    -9.49498    0.09156   -5.79151
       H   -12.55089   -4.17410   -6.92179
       O   -12.58683   -5.07905   -6.60099
      H1   -11.70289   -5.43813   -6.90485
       H   -14.87316   -3.75466  -13.14291
       O   -14.42062   -3.35519  -12.38214
      H1   -13.80533   -4.02809  -12.05360

