111
frame 3 | Written by MDAnalysis XYZWriter (release 2.4.3)
       H     8.65581   -1.36667    0.02576
       O     8.24652   -2.20985    0.08276
      H1     9.01889   -2.80677    0.12543
       H     5.61548   -1.57472    3.64967
       O     5.24170   -1.04850    2.99288
      H1     5.82570   -0.35457    2.63345
       H    11.67363   -2.16215   -0.23780
       O    11.52586   -2.02732   -1.24841
      H1    11.92364   -2.80977   -1.62354
       H     8.82281   -9.94754    6.41819
       O     8.38503   -9.52070    5.72478
      H1     8.54578  -10.08795    4.90526
       H    13.67968   -4.64549    3.46784
       O    13.68560   -5.04008    4.43957
      H1    14.50252   -5.60213    4.46121
       H     5.29563   -6.48118    3.73493
       O     5.67990   -6.10495    4.48829
      H1     5.25410   -5.20424    4.53619
       H     5.46598   -2.20731    1.72334
       O     5.80645   -2.79968    0.99185
      H1     6.63101   -2.39096    0.72391
       H     7.37550   -6.38660    5.16606
       O     8.02235   -6.81955    5.73717
      H1     7.87966   -7.73781    5.64096
       H     7.18850   -4.74735    3.18581
       O     7.67538   -4.46564    2.43342
      H1     7.20394   -3.77385    1.98742
       H    10.74272   -4.57965    6.93874
       O    11.55909   -4.93947    7.24092
      H1    11.93377   -5.57168    6.59972
       H    12.91712   -3.96034    7.80109
       O    13.76564   -3.53807    8.18467
      H1    14.22890   -3.29933    7.39410
       H     4.56849   -3.49137    5.63106
       O     4.34904   -3.19346    4.76184
      H1     3.45856   -3.45304    4.55812
       H     9.89679   -0.74827    2.24606
       O     9.17559   -0.43693    2.87699
      H1     8.45355   -0.00786    2.32650
       H     8.02061   -9.06828    1.33505
       O     8.32486  -10.00665    1.23216
      H1     8.15533  -10.26058    0.30055
       H    10.62222   -4.88533    0.48570
       O     9.82880   -4.85750   -0.07890
      H1    10.21252   -4.91906   -1.01175
       H    14.06763   -3.66653    5.15503
       O    14.45165   -2.82528    5.46119
      H1    15.33384   -2.85912    5.09281
       H    10.10502   -8.09142    4.42978
       O    10.66709   -7.45086    3.99494
      H1    10.85411   -7.76488    3.08169
       H     7.35794   -4.97250    8.32047
       O     8.21025   -5.29027    8.03548
      H1     7.96770   -5.85746    7.34589
       H    11.84592   -1.79595    2.36807
       O    11.62063   -2.06438    1.46484
      H1    11.79533   -3.04813    1.60522
       H     9.92344  -10.17131    2.45808
       O    10.25029  -10.41109    3.33560
      H1    11.22183  -10.18622    3.36322
       H     8.23164   -7.26193   -1.00570
       O     8.60841   -7.03027   -1.87509
      H1     8.86640   -7.94032   -2.25808
       H     7.04267   -0.16631    6.28480
       O     6.96710    0.50724    6.97828
      H1     7.73657    0.43717    7.55736
       H    15.99552   -3.75910    0.57745
       O    15.17549   -3.39189    0.93132
      H1    14.62937   -3.60032    0.21197
       H    12.69420   -5.52437    1.67271
       O    12.09129   -4.78151    1.93729
      H1    11.70110   -5.00855    2.78673
       H     9.31141   -4.58227    3.26194
       O    10.08432   -4.68782    3.83357
      H1    10.18935   -5.70993    3.95898
       H    13.56236   -1.40019    4.66510
       O    13.05653   -1.14521    3.87952
      H1    12.52176   -0.41172    4.19419
       H    12.38802   -7.44279    6.46293
       O    13.21903   -7.38034    5.91544
      H1    12.86470   -7.00648    5.08958
       H    14.04845   -7.51957    1.91057
       O    13.86580   -6.83073    1.31264
      H1    14.49266   -6.85552    0.60285
       H    11.76376   -0.45858    7.17037
       O    10.91728   -0.79589    6.87708
      H1    11.13186   -1.70145    6.67638
       H    15.03232   -1.57453    1.65167
       O    14.87721   -0.68924    2.04039
      H1    14.44788   -0.87882    2.91979
       H     8.21188   -2.37460    5.60664
       O     7.69539   -1.59859    5.26759
      H1     8.12495   -1.24704    4.50408
       H    12.02435   -7.66893    1.27755
       O    11.15421   -8.14175    1.39567
      H1    11.23046   -8.88786    0.77035
       H    10.16329   -7.44302    7.40767
       O    10.98044   -7.73727    7.71827
      H1    11.23458   -7.11393    8.44070
       H     9.19709   -6.80412    0.81177
       O     8.33510   -6.91146    1.26135
      H1     8.05210   -5.99116    1.32625
       H     8.86234   -4.00012    6.46103
       O     9.37493   -3.34105    6.01548
      H1     9.75973   -3.78820    5.23309
       H    10.96372    0.18854    4.98776
       O    11.29114    0.82653    4.36856
      H1    10.71750    0.79619    3.61085
       H     9.34308   -3.98979    9.25594
       O     9.90154   -4.09437   10.04588
      H1     9.49169   -3.55927   10.81667

