111
frame 11 | Written by MDAnalysis XYZWriter (release 2.4.3)
       H     8.88386   -9.12350  -14.06750
       O     8.11310   -9.28327  -13.46528
      H1     8.02627  -10.27517  -13.47308
       H    10.31562   -9.14108  -10.61118
       O    11.09579   -8.86362  -10.16837
      H1    11.63625   -8.65157  -10.90218
       H    13.37317   -7.63513   -8.28345
       O    13.39360   -8.30554   -7.57398
      H1    14.35360   -8.44795   -7.38999
       H     7.74986   -8.66614  -11.76235
       O     7.58354   -8.29764  -10.89583
      H1     8.16610   -7.56477  -10.71026
       H    17.40396   -4.06430  -11.93871
       O    17.10807   -4.93206  -12.24082
      H1    16.88090   -5.47854  -11.46906
       H    15.81686   -5.73730  -13.46955
       O    15.16339   -5.96242  -14.14446
      H1    14.32309   -6.07472  -13.75018
       H    11.03526   -6.56087  -16.84260
       O    10.63145   -6.90430  -17.62978
      H1     9.96187   -6.32595  -17.97498
       H     9.22254   -8.68768  -16.13172
       O     9.85044   -8.49172  -15.41746
      H1     9.79548   -7.53768  -15.16883
       H    14.03985  -10.98074   -8.50180
       O    14.95186  -10.78436   -8.11499
      H1    15.45053  -11.54653   -8.51431
       H    11.03192   -3.99633  -11.03814
       O    10.88937   -4.48282  -11.83788
      H1    11.02136   -3.86510  -12.51760
       H    15.69105   -4.05477  -13.93314
       O    15.98512   -3.17363  -14.04860
      H1    16.17816   -2.98407  -14.98268
       H    12.17289  -10.50863   -9.87426
       O    12.67297  -11.26279   -9.50255
      H1    12.76221  -11.91322  -10.18636
       H    11.66595   -8.60551  -15.69019
       O    12.55130   -8.29605  -15.50194
      H1    12.88638   -8.05632  -16.33092
       H    10.39204   -1.99764  -13.04627
       O    10.93660   -2.52323  -13.69111
      H1    11.83018   -2.23659  -13.61505
       H    13.43935   -1.81301  -12.27459
       O    13.23136   -1.65398  -11.30159
      H1    12.69886   -2.37654  -10.92529
       H    16.02841   -9.14624   -8.45658
       O    16.11267   -8.20673   -8.27406
      H1    16.51219   -8.17279   -7.36270
       H     9.82259   -8.41376   -7.29869
       O     9.53010   -7.62834   -7.77267
      H1     9.98225   -7.59718   -8.59466
       H    13.52888  -14.18729  -11.04702
       O    13.56499  -13.28831  -11.36947
      H1    14.19004  -13.34724  -12.09105
       H    12.08657   -4.93855   -7.73948
       O    12.86300   -4.94037   -8.27260
      H1    13.41860   -4.25825   -7.82163
       H     9.81747  -13.03333  -11.57496
       O    10.14196  -12.19650  -11.96197
      H1    10.82594  -12.41436  -12.60914
       H    15.14634  -10.38505  -12.04215
       O    14.98552   -9.92311  -11.24823
      H1    15.26540  -10.47800  -10.53449
       H    10.37545  -12.94211  -14.40097
       O    11.24958  -13.30950  -14.30313
      H1    11.82603  -12.53972  -14.35504
       H    11.70085   -3.45673   -8.78296
       O    11.16567   -2.88721   -9.39992
      H1    11.22363   -2.00441   -8.97319
       H    15.91536   -8.33307  -11.07215
       O    16.23140   -7.44484  -10.82711
      H1    16.25965   -7.53033   -9.83358
       H    12.47459   -6.33205  -13.20817
       O    12.28622   -5.96807  -14.10286
      H1    12.52344   -6.77503  -14.55546
       H    18.72532   -9.53707  -11.09952
       O    18.72460   -8.71538  -11.62086
      H1    17.92388   -8.29567  -11.44236
       H    10.26533   -5.58007  -13.59813
       O     9.39176   -5.70225  -14.12294
      H1     8.80749   -5.16874  -13.54492
       H    13.72850   -8.53271  -11.77661
       O    13.25131   -7.64815  -11.90948
      H1    13.72588   -7.07628  -11.21611
       H    14.01689  -11.30883  -14.14323
       O    13.08286  -11.15080  -14.23352
      H1    12.92514  -10.35007  -14.74326
       H    17.36576   -9.36521  -15.12086
       O    16.41623   -9.68559  -15.21134
      H1    16.02614   -8.96016  -15.66972
       H    14.63312   -2.33715  -13.86792
       O    13.75630   -1.87420  -13.92904
      H1    13.89489   -1.03088  -14.46772
       H    19.11839  -11.58348  -12.39808
       O    18.38927  -11.52435  -11.77057
      H1    17.59867  -11.45344  -12.27478
       H    11.86631   -9.60609   -7.51819
       O    11.06177   -9.93559   -7.16956
      H1    10.80450  -10.63751   -7.82812
       H     9.43521   -5.58685  -11.03825
       O     8.86778   -5.78396  -10.24169
      H1     8.58639   -4.87752   -9.98662
       H    16.32907   -4.58852   -6.71240
       O    16.20588   -5.54643   -6.58184
      H1    15.46415   -5.83303   -7.12877
       H    16.12639  -12.60966  -13.67649
       O    15.82326  -11.70587  -13.50130
      H1    16.12463  -11.19383  -14.29066
       H    14.74970   -5.71061  -17.01060
       O    15.64199   -5.54601  -16.70798
      H1    15.44157   -5.69735  -15.70333

