111
frame 11 | Written by MDAnalysis XYZWriter (release 2.4.3)
       H     2.76833   15.58240  -10.71678
       O     1.98386   15.08406  -10.54355
      H1     1.24770   15.71183  -10.55436
       H     2.31224   14.65195  -15.53919
       O     3.19801   14.47738  -15.42228
      H1     3.52763   14.28585  -16.29718
       H     4.12495   17.99916  -15.40563
       O     3.59964   17.42793  -14.84831
      H1     3.69256   16.53950  -15.11360
       H     7.66323   10.16133  -11.91529
       O     8.65145   10.11658  -11.64251
      H1     8.71779   10.76070  -10.90793
       H     8.73312   14.73280  -10.37300
       O     8.02043   14.21256  -10.81617
      H1     8.46648   13.55582  -11.41559
       H     4.27192    6.68483  -11.71766
       O     4.20622    5.75143  -11.63535
      H1     4.43694    5.49697  -10.69776
       H     4.93996   16.34722  -11.21630
       O     4.26904   16.13879  -11.84665
      H1     4.19840   17.05647  -12.21301
       H     0.13901   15.28663  -14.36463
       O     0.56510   15.04269  -15.18583
      H1     0.18373   14.17519  -15.33614
       H     0.00265   12.45817  -12.25526
       O    -0.74490   12.01328  -12.70710
      H1    -1.28948   11.56764  -12.07373
       H     2.15288   14.00344  -12.01942
       O     2.01600   13.10589  -12.36433
      H1     1.76854   13.34488  -13.28777
       H     4.95414   14.78429  -12.98364
       O     5.39261   14.17312  -13.62564
      H1     4.79464   14.30351  -14.43643
       H    -2.96427   13.42507  -14.41818
       O    -2.08353   13.38443  -14.85838
      H1    -1.42687   12.85387  -14.32077
       H     7.66167   16.80049  -12.95346
       O     7.68149   16.03105  -13.54632
      H1     7.42244   15.28519  -12.96273
       H     0.36114    9.09670  -12.93300
       O     1.07723    9.73106  -12.63077
      H1     0.66271   10.62634  -12.56748
       H     2.69750   10.33670   -8.64453
       O     3.56581   10.66617   -8.32763
      H1     3.84095   11.32602   -8.92072
       H     6.31130    8.85648  -16.39894
       O     6.51190    8.25895  -15.64360
      H1     6.21177    8.74449  -14.84411
       H     5.65284   16.21099   -8.88564
       O     6.02799   16.27434   -9.78733
      H1     6.70909   15.59939  -10.06404
       H     4.89975   13.27841  -11.19149
       O     4.46509   12.43671  -10.93624
      H1     3.73439   12.41566  -11.53277
       H     2.07142   17.82385  -10.51327
       O     1.61549   17.91705  -11.33868
      H1     0.86049   18.51801  -11.21255
       H     7.18452   15.54826  -15.17165
       O     7.09296   15.50161  -16.10859
      H1     6.48024   14.82675  -16.30325
       H     2.29414    7.01899   -8.36574
       O     2.20711    7.88880   -8.74964
      H1     1.37591    8.09711   -8.24864
       H     3.01665    8.78242  -11.04973
       O     3.80903    8.67460  -11.50484
      H1     3.55235    8.87285  -12.40325
       H     3.17745    9.75233  -16.64376
       O     3.32964   10.20361  -17.45223
      H1     4.24512    9.90833  -17.63707
       H    -0.65520    6.94902  -10.37378
       O    -0.58782    7.95206  -10.30013
      H1     0.31588    8.17248  -10.60783
       H     4.80902   13.31364  -17.39181
       O     5.56328   13.49786  -16.89475
      H1     5.58289   12.82210  -16.19075
       H     8.24955   11.90283   -8.62241
       O     8.04341   11.75136   -9.58096
      H1     7.78313   12.66672   -9.92420
       H     0.07025   13.23151   -8.82916
       O     1.02083   13.34877   -8.62866
      H1     1.38101   13.85430   -9.34746
       H     6.98854    9.87571   -9.37395
       O     7.17176    9.27304   -8.67319
      H1     6.29121    8.82492   -8.56119
       H     1.70494   12.14335  -16.26427
       O     1.10305   12.18791  -15.52001
      H1     0.77299   11.31460  -15.46904
       H     3.55350   12.16698  -14.85544
       O     4.36185   11.64621  -14.55021
      H1     4.53903   11.95218  -13.67258
       H     5.35691    9.70360  -11.46909
       O     5.91975   10.43762  -11.69562
      H1     5.43269   11.25025  -11.38658
       H    -0.98581   14.36253  -12.91358
       O    -0.61535   15.23564  -12.74757
      H1    -0.64462   15.27269  -11.79297
       H     3.34732   10.06586  -14.63212
       O     2.81806    9.28225  -14.57126
      H1     2.15756    9.39222  -13.84380
       H     1.13017   10.82613   -7.65906
       O     0.93961   10.75177   -8.60555
      H1     1.10315   11.69131   -8.83582
       H    -1.22820   14.76511   -9.41717
       O    -0.84741   15.45980   -9.95740
      H1    -1.25208   16.32869   -9.77586
       H     4.74178    7.13832   -8.60176
       O     4.94825    7.91105   -8.08420
      H1     4.12881    8.45223   -8.12303
       H     9.97485   12.92352  -12.88053
       O     9.02580   12.62955  -12.84467
      H1     9.06206   11.72233  -12.42828

