111
frame 2 | Written by MDAnalysis XYZWriter (release 2.4.3)
       H   -13.07575  -17.70518  -15.44347
       O   -12.21071  -17.57279  -15.87784
      H1   -12.13853  -18.42938  -16.29364
       H   -11.75748  -13.04747  -16.20069
       O   -12.06612  -13.64771  -15.47179
      H1   -11.15099  -13.90566  -15.09951
       H    -8.25109  -14.95787  -15.36178
       O    -8.85520  -14.77228  -14.61741
      H1    -8.78172  -13.81707  -14.44663
       H   -11.36910  -10.97052  -17.96388
       O   -11.99471  -11.52893  -18.34744
      H1   -12.06022  -11.19633  -19.23972
       H    -6.35493  -19.20736  -16.90787
       O    -6.09482  -18.73069  -16.10549
      H1    -5.77242  -19.34855  -15.44203
       H    -7.43381  -16.55490  -13.94777
       O    -7.15027  -17.43098  -13.68964
      H1    -6.97020  -17.91321  -14.48557
       H    -4.75844  -11.55984  -15.73784
       O    -4.25963  -12.37374  -15.37962
      H1    -3.78703  -12.83481  -16.12569
       H     0.60309  -18.89787  -15.91714
       O     0.89187  -18.71168  -14.97529
      H1     1.88771  -18.62814  -14.94331
       H   -11.90647  -14.76255  -19.30066
       O   -11.58869  -13.93796  -19.70540
      H1   -11.57620  -13.26836  -19.04557
       H    -4.74353  -17.77556  -16.02731
       O    -3.97400  -17.21377  -16.00339
      H1    -3.48967  -17.36434  -15.20563
       H   -14.42429  -15.27350  -17.63512
       O   -14.62705  -15.82599  -18.40919
      H1   -13.79370  -16.32896  -18.61749
       H    -7.23530  -17.34833  -10.62785
       O    -7.28531  -16.52271  -11.14095
      H1    -7.12317  -16.80055  -12.07457
       H    -1.98226  -11.48948  -18.43003
       O    -1.10001  -11.70082  -18.12265
      H1    -0.57805  -11.80815  -18.89333
       H    -6.19789  -15.16583  -11.04811
       O    -5.54312  -14.45467  -11.08652
      H1    -5.80434  -14.02834  -11.88919
       H   -11.94754  -16.29389  -13.40142
       O   -11.06797  -16.03566  -13.08461
      H1   -10.47429  -15.70228  -13.77560
       H    -4.91273   -9.36726  -15.09062
       O    -5.47859   -9.89132  -15.71013
      H1    -6.22741   -9.26760  -15.68602
       H    -5.18584  -15.30110  -15.57700
       O    -6.03043  -14.95083  -15.70698
      H1    -5.90153  -14.03113  -15.43997
       H    -7.73093  -12.09160  -14.00291
       O    -8.63866  -12.01440  -14.34525
      H1    -8.56498  -11.66340  -15.24688
       H    -2.93372  -16.90644  -12.98110
       O    -2.33454  -17.16749  -13.68419
      H1    -1.70592  -17.84101  -13.36667
       H     0.03990  -15.31057  -13.61332
       O     0.42994  -15.56765  -14.48487
      H1     0.33663  -16.51705  -14.57523
       H     1.52710  -14.67988  -17.29592
       O     2.00501  -15.24897  -17.93341
      H1     2.92116  -14.93942  -18.07802
       H   -11.17039  -16.67014  -18.78148
       O   -12.11371  -16.54751  -18.61507
      H1   -12.18518  -16.60767  -17.62606
       H    -5.34476  -12.84457  -13.74240
       O    -6.08862  -12.88289  -13.09754
      H1    -6.08615  -12.00909  -12.65227
       H    -2.31071  -13.50597  -17.81631
       O    -3.00194  -14.06519  -17.40342
      H1    -2.55409  -14.95969  -17.40281
       H     0.23070  -14.39492  -15.70022
       O     0.65000  -13.67388  -16.25028
      H1    -0.12275  -13.23084  -16.63352
       H    -4.16859  -10.50389  -18.10108
       O    -3.37724  -10.01139  -17.81602
      H1    -3.67437   -9.86587  -16.87768
       H    -5.82646  -12.12692  -19.09893
       O    -5.97553  -11.37742  -18.51308
      H1    -6.18054  -10.60530  -19.08813
       H    -0.54338  -16.66802  -17.44332
       O    -1.43826  -16.30941  -17.51459
      H1    -2.04709  -16.73829  -16.90753
       H    -9.19489  -16.11686  -18.93180
       O    -9.65490  -16.06756  -19.77941
      H1    -9.99444  -15.18824  -19.86934
       H    -8.67423  -17.48323  -17.30256
       O    -8.39500  -16.54424  -17.24742
      H1    -7.46121  -16.59192  -17.37741
       H    -5.64531  -16.75499  -19.35330
       O    -5.70619  -15.88541  -18.89760
      H1    -5.22584  -15.79276  -18.04311
       H     0.73253  -18.14925  -18.58442
       O     1.08646  -17.91960  -17.68816
      H1     1.49190  -17.01914  -17.79277
       H   -10.11685  -17.79745  -13.14291
       O    -9.56781  -18.58566  -13.03904
      H1    -8.66022  -18.24055  -13.14415
       H    -8.62464  -18.93253  -19.72038
       O    -8.65307  -19.08657  -18.76504
      H1    -9.58795  -19.16362  -18.50322
       H    -3.04078  -12.08973  -14.17176
       O    -2.31963  -11.72932  -13.64582
      H1    -2.63672  -11.39956  -12.77924
       H    -7.63411  -11.73678  -17.61572
       O    -8.37161  -11.47140  -17.06964
      H1    -8.33314  -10.48302  -17.21287
       H    -1.36337  -10.82692  -14.79963
       O    -0.49644  -10.62120  -15.19114
      H1    -0.56511  -10.93301  -16.08983

