111
frame 5 | Written by MDAnalysis XYZWriter (release 2.4.3)
       H     8.20175    8.24376  -11.96654
       O     9.18162    8.39167  -11.68247
      H1     9.30889    8.72602  -10.78920
       H    16.32529    9.53190   -6.63553
       O    15.85490   10.24099   -7.11138
      H1    15.20391   10.58757   -6.49094
       H    12.03972    9.24038  -14.25990
       O    12.02364    9.98990  -14.84526
      H1    12.82136   10.54079  -14.65639
       H    18.72771    5.88417   -9.87135
       O    19.03854    6.75399   -9.67669
      H1    18.96123    7.20955  -10.58894
       H    12.34157    5.67531   -7.02482
       O    12.04862    4.79823   -6.74369
      H1    12.03195    4.88217   -5.79705
       H    12.97987   12.01289   -4.77773
       O    13.35867   12.70969   -4.23171
      H1    12.73803   13.15851   -3.62752
       H    14.00003   11.53301  -11.63948
       O    14.70712   12.00512  -12.14846
      H1    14.39433   12.95268  -12.14381
       H    16.67227   11.64065  -11.98641
       O    17.55731   11.33095  -12.23005
      H1    18.14926   11.95063  -11.76457
       H    15.07286   10.04108   -8.66326
       O    14.98889    9.79834   -9.59650
      H1    14.13086   10.17154   -9.89677
       H    15.11593   13.74576   -9.19344
       O    15.03357   13.62225   -8.27734
      H1    15.91901   13.38249   -7.95001
       H    16.45510   11.11752   -3.90003
       O    15.72201   10.54936   -4.21917
      H1    14.94038   10.60515   -3.63050
       H    12.34453    4.45312  -12.74644
       O    12.68203    4.56638  -11.87562
      H1    12.36846    5.40115  -11.59393
       H    19.19182   11.32061   -8.15023
       O    19.73409   10.50182   -8.27890
      H1    19.20349   10.14948   -9.01924
       H    16.14971    6.80685   -5.32494
       O    15.65399    6.55058   -4.54873
      H1    15.48209    5.60241   -4.43905
       H    11.25105   12.49792  -11.46305
       O    10.58467   12.94142  -12.01671
      H1    10.38432   12.20062  -12.63832
       H    11.74426   10.54729  -10.43300
       O    12.34012   11.32810  -10.46479
      H1    12.27920   11.68823   -9.52825
       H    13.65946    8.69443  -12.52926
       O    12.69500    8.74831  -12.46692
      H1    12.46645    8.05697  -11.82612
       H    17.98611   12.79879   -6.42469
       O    17.54520   12.45400   -7.16312
      H1    17.08328   11.65177   -6.93243
       H     9.64338    8.66808   -8.36760
       O    10.09753    9.03217   -9.16312
      H1    10.38470    8.16981   -9.58804
       H    14.57168   10.86625  -15.11743
       O    14.36642   11.84145  -14.85845
      H1    14.53831   11.90471  -13.93937
       H    12.72027   12.08004   -7.45278
       O    11.95621   12.01784   -8.05115
      H1    11.58340   12.90062   -8.01792
       H    18.60994   12.84996   -9.90374
       O    18.93535   13.02558  -10.79226
      H1    19.13883   14.00612  -10.83401
       H    18.12254    7.10535  -13.20105
       O    18.68661    6.89641  -12.44926
      H1    18.94147    5.95440  -12.64588
       H    15.48973    8.03876  -11.51496
       O    15.40818    7.88472  -12.45607
      H1    16.13597    8.37058  -12.89511
       H    15.13029   15.80149  -10.17998
       O    16.06077   15.43143  -10.25819
      H1    16.30684   15.63157   -9.35278
       H    11.36970    6.27432   -9.85035
       O    12.12641    6.85646  -10.00359
      H1    12.68455    7.09173   -9.23491
       H    17.12103    9.42556  -10.13551
       O    18.01547    9.68921  -10.33319
      H1    17.87352   10.38473  -10.94983
       H    14.44272   13.94728   -5.29399
       O    14.88549   14.65240   -5.78076
      H1    15.03494   14.29566   -6.68422
       H    16.94607    7.25879   -7.38671
       O    17.13230    7.71364   -6.56695
      H1    18.07811    7.72135   -6.50772
       H    12.25764   10.51912   -6.31363
       O    13.12789   10.78211   -6.00927
      H1    13.53055   10.08650   -5.48955
       H    18.47099    9.38346   -3.32406
       O    17.95761    8.86260   -3.99846
      H1    17.16812    9.37865   -4.08786
       H    12.10032   13.77468  -12.15668
       O    12.99285   14.18784  -12.21746
      H1    12.78692   14.97166  -12.78412
       H    15.47719    5.62153  -11.96741
       O    15.36444    5.02985  -11.16558
      H1    14.36390    4.92234  -11.10224
       H    14.30173    7.71588   -4.59588
       O    13.57026    8.36382   -4.73274
      H1    13.68439    8.99475   -3.97282
       H    13.55235    7.90099   -7.38914
       O    13.56400    6.97804   -7.57842
      H1    14.50901    6.72255   -7.53302
       H    17.53231   10.17782  -13.31836
       O    17.37009    9.47222  -14.00998
      H1    16.89933    9.91211  -14.69670
       H    17.23237    6.69833   -9.29667
       O    16.30339    6.64735   -9.02617
      H1    15.88905    6.20010   -9.75820

