111
frame 9 | Written by MDAnalysis XYZWriter (release 2.4.3)
       H    15.36379  -12.92404   11.84898
       O    15.17989  -13.38067   12.63902
      H1    15.57596  -12.81132   13.36457
       H    12.97863  -16.02281   12.35283
       O    12.79751  -16.11741   11.40828
      H1    11.95642  -16.58776   11.26571
       H     7.14343  -17.99883   14.51654
       O     7.15393  -17.07754   14.31936
      H1     6.24140  -16.78014   14.25769
       H     7.69989  -17.28951   18.14994
       O     8.59075  -16.93067   18.17978
      H1     8.44955  -16.12670   17.63130
       H     9.32942  -13.42345   13.29949
       O     9.70624  -14.21617   13.67521
      H1     9.12026  -14.49061   14.41418
       H     7.47823  -11.23057   11.22650
       O     7.11950  -10.50610   10.72828
      H1     7.76434  -10.47252    9.93543
       H    12.40591  -14.36069   15.04681
       O    11.85688  -13.64864   15.47474
      H1    11.04607  -13.88395   15.04347
       H    11.87051  -12.21714   14.02525
       O    12.04156  -11.29107   13.83107
      H1    11.82490  -11.12756   12.90637
       H     5.00859  -13.25904   12.58586
       O     5.82006  -13.72265   12.82409
      H1     6.01879  -14.28371   12.06243
       H    10.43638  -16.99166   13.40886
       O    11.28924  -17.30330   13.75775
      H1    11.39259  -18.24634   13.66667
       H    13.74924  -11.10076   14.54588
       O    14.60689  -10.94870   14.91538
      H1    14.59330  -10.18051   15.50220
       H     8.30328   -8.89911   13.73130
       O     8.88366   -8.27735   13.28709
      H1     9.06607   -8.65177   12.40056
       H    10.40250  -11.33352   15.43498
       O    10.02770  -11.14733   16.31002
      H1     9.89522  -11.98556   16.81937
       H    10.64924   -9.97150   17.35944
       O    11.29508   -9.43935   17.88268
      H1    11.35543   -9.90209   18.70081
       H     8.81357  -18.30979   10.89437
       O     7.98913  -18.85731   11.12614
      H1     8.27807  -19.71440   11.36759
       H     9.55965  -12.16366   18.89168
       O     9.65187  -12.97302   18.34591
      H1    10.61249  -13.28255   18.44742
       H     5.81111  -11.54198   10.04648
       O     5.19451  -12.12903    9.55160
      H1     5.81655  -12.76962    9.16279
       H     7.19239  -15.99986   11.30160
       O     7.87317  -15.29785   11.39588
      H1     8.05168  -15.26325   12.32556
       H    15.25987  -12.85873   15.83251
       O    16.18514  -13.13728   16.01263
      H1    16.70816  -12.36655   15.85057
       H     5.55324  -11.10928   18.22729
       O     6.03909  -10.87687   17.40061
      H1     6.61315  -10.17418   17.67625
       H    12.28146  -11.31157   10.19170
       O    12.35442  -10.79918   10.97823
      H1    13.29022  -10.77753   11.09558
       H     7.81911  -15.89693   15.40089
       O     8.25434  -15.07808   15.73416
      H1     7.59126  -14.54711   16.24883
       H     9.72166  -17.05134    9.66807
       O     9.88396  -17.04025   10.61930
      H1     9.33939  -16.25148   10.94677
       H    11.28963   -9.23226   10.80424
       O    10.47995   -8.80255   10.92069
      H1    10.64379   -7.84619   10.63739
       H    14.79038  -15.50621   14.96699
       O    13.97885  -14.99887   14.55416
      H1    14.41038  -14.46131   13.94767
       H     8.25974  -11.49718   13.40889
       O     8.28781  -12.06812   12.64701
      H1     7.45714  -12.58203   12.73400
       H    12.71427  -14.68121   18.23608
       O    12.23892  -13.84059   18.13983
      H1    12.10597  -13.77369   17.15982
       H    12.75987  -15.92068    8.65093
       O    12.07974  -15.47380    8.08884
      H1    12.60607  -15.13117    7.31783
       H     9.91936  -17.92353   17.03273
       O    10.46772  -18.13824   16.29871
      H1    10.72574  -17.30530   15.86164
       H    13.59266  -17.20923   10.38962
       O    13.95354  -17.97035    9.80885
      H1    13.40981  -18.03003    9.00226
       H    12.41333  -14.08203    9.42853
       O    12.86339  -13.51584   10.04107
      H1    13.01763  -14.11938   10.72927
       H     6.25241  -12.75532   17.31790
       O     6.34545  -13.70222   17.29935
      H1     5.53229  -14.00229   16.84919
       H     8.32026  -10.53859   15.48141
       O     7.74165  -10.39005   14.70962
      H1     6.81012  -10.42085   15.02495
       H     7.14329  -14.46002    8.29543
       O     7.11870  -13.71528    8.90676
      H1     7.74443  -14.01438    9.65424
       H     6.72533  -17.75700   11.30850
       O     5.99423  -17.06717   11.35638
      H1     5.68625  -17.19391   12.25788
       H     5.08078  -14.98529   13.69853
       O     4.68201  -15.72776   14.20277
      H1     3.97916  -15.90215   13.51841
       H     9.18523   -9.40172    9.72942
       O     8.76909   -9.69574    8.91523
      H1     9.40727  -10.29034    8.54784

