111
frame 1 | Written by MDAnalysis XYZWriter (release 2.4.3)
       H     8.94521  -11.23697   10.89047
       O     9.52818  -11.94522   11.15608
      H1     8.97168  -12.64503   11.55728
       H    17.64966  -11.14441   15.14890
       O    17.86804  -11.80876   15.80493
      H1    17.01335  -12.18593   16.12556
       H    12.18797   -6.50164   11.29914
       O    11.24670   -6.31871   11.18884
      H1    11.14804   -5.34608   11.27282
       H     8.87380  -14.06684   14.27241
       O     9.58908  -14.66600   14.54699
      H1     9.09756  -15.34853   15.00669
       H     7.51440   -9.82209   11.73283
       O     7.92917   -9.58476   10.91357
      H1     8.52575   -8.84894   11.23455
       H    12.69391  -14.38005   15.54099
       O    11.84286  -14.42205   15.96087
      H1    11.06056  -14.45903   15.32347
       H    14.26887   -7.21272   12.12042
       O    13.78956   -7.32143   11.26952
      H1    14.25070   -6.87909   10.55726
       H    13.19949  -11.52423   15.74244
       O    12.76562  -10.68558   15.56038
      H1    12.25399  -10.74144   14.72363
       H    10.15425  -15.85905   13.15652
       O    10.41151  -16.76828   12.94113
      H1     9.86220  -17.30888   13.46753
       H    14.88081  -12.80695   17.07532
       O    15.18219  -12.19920   16.39163
      H1    15.21708  -11.36109   16.77874
       H    13.44533  -13.99353    9.51613
       O    13.39631  -13.13654    9.12487
      H1    12.47254  -12.88562    9.05328
       H    10.26784   -8.85195   16.98622
       O     9.77761   -8.35556   16.27500
      H1     9.17048   -7.74932   16.80982
       H    12.15346   -7.14433   14.27048
       O    11.30456   -6.69693   14.24910
      H1    10.59110   -7.34149   14.59125
       H    12.13239  -10.07757   17.15879
       O    11.78774   -9.69180   17.98261
      H1    11.67453  -10.48362   18.50392
       H    13.20745   -8.70464   19.13302
       O    13.95353   -8.42141   19.65605
      H1    14.14519   -7.50827   19.52895
       H    13.69338   -9.09008    9.86200
       O    13.79457   -9.71537    9.14848
      H1    13.44174  -10.50898    9.57549
       H    10.84647  -12.67301   19.29769
       O    10.77133  -12.38188   18.33910
      H1    10.89540  -13.18659   17.81210
       H    14.97781   -8.88571   16.38547
       O    14.66696   -8.69997   15.51361
      H1    13.85994   -9.28646   15.45052
       H     7.01860   -6.27662   13.66143
       O     7.20548   -6.29591   12.71355
      H1     8.12423   -6.70427   12.70666
       H     7.96458  -11.89989   18.56078
       O     7.66291  -11.84341   17.59690
      H1     8.50783  -11.78808   17.16719
       H    10.85850  -11.61471   12.46443
       O    11.39719  -11.45382   13.21494
      H1    12.22293  -11.92474   13.05816
       H     9.49125   -8.84402   12.83693
       O     9.32528   -7.99422   12.47065
      H1    10.12606   -7.49269   12.37698
       H    10.22409   -6.21525   17.09298
       O    11.10401   -5.72820   17.02173
      H1    11.30356   -5.93243   16.11912
       H    15.04673  -14.75620   14.13647
       O    14.19967  -14.35423   13.96423
      H1    14.43118  -13.55854   13.35370
       H    16.38174  -10.23155   18.27463
       O    15.60552   -9.83992   17.88775
      H1    15.20426   -9.24421   18.56243
       H     7.51122  -12.27816   13.15882
       O     7.77957  -13.16042   12.80798
      H1     7.04957  -13.55502   12.23513
       H    11.06614  -17.03993   17.92791
       O    11.14691  -16.84185   17.02034
      H1    11.33436  -15.89339   16.83210
       H     6.66743   -9.20104   18.83467
       O     6.68810   -8.96965   17.89601
      H1     7.17416   -9.73337   17.60020
       H    15.43935   -7.75468   14.17442
       O    15.44420   -7.29074   13.32886
      H1    15.50319   -6.38324   13.59641
       H    15.07989  -13.87819   18.77063
       O    14.29481  -13.99896   18.28322
      H1    13.58912  -14.28189   18.91501
       H    14.67106  -11.25368   12.24316
       O    14.30177  -12.12053   12.17037
      H1    14.58528  -12.37095   11.30392
       H    12.89321  -17.38900   12.56791
       O    13.69312  -17.05324   12.89341
      H1    13.66110  -16.12218   12.99661
       H    17.90676   -8.97198   14.25366
       O    17.76470   -9.86261   13.81274
      H1    17.01230   -9.74610   13.27349
       H     9.56160   -9.87438   15.36046
       O     9.23275  -10.44610   14.67649
      H1     9.98256  -10.83930   14.24783
       H     7.39252  -10.39944   13.89718
       O     6.75385  -10.41180   13.18576
      H1     5.88333  -10.64157   13.58076
       H    15.92965  -10.03723   10.62834
       O    15.98119   -9.75888   11.50980
      H1    15.61633   -8.86392   11.52625
       H    10.17044  -12.17744    9.41360
       O    10.67319  -12.23645    8.58360
      H1    10.36912  -12.96676    8.02675

