111
frame 11 | Written by MDAnalysis XYZWriter (release 2.4.3)
       H    10.01715   -2.06047   -2.76865
       O    10.92456   -2.09385   -3.10525
      H1    11.40294   -2.25599   -2.27248
       H    13.47481   -9.22114   -0.56684
       O    13.03727   -8.81215   -1.41757
      H1    12.99329   -9.58419   -2.04941
       H    13.37317   -7.63513   -8.28345
       O    13.39360   -8.30554   -7.57398
      H1    14.35360   -8.44795   -7.38999
       H    17.32306   -6.88188   -4.73616
       O    18.04109   -6.44169   -4.32821
      H1    17.71510   -5.72595   -3.85087
       H    12.99661   -3.32302   -1.30666
       O    12.74432   -2.41077   -1.16907
      H1    11.98949   -2.37079   -0.51819
       H     9.92084  -10.26903   -4.22330
       O    10.74680  -10.76593   -4.35210
      H1    11.04296  -10.39958   -5.20361
       H    16.11163   -1.49920   -4.24258
       O    16.24517   -0.67740   -3.78668
      H1    15.37157   -0.41385   -3.49353
       H    12.85145   -5.77640   -1.69678
       O    13.59818   -5.26333   -1.31249
      H1    13.88575   -5.64770   -0.50322
       H    14.68150   -8.33094   -2.52142
       O    15.58626   -8.51663   -2.92521
      H1    16.11157   -8.33175   -2.12761
       H    15.49110  -10.18454   -4.93906
       O    15.89178  -10.90152   -5.41470
      H1    15.54439  -10.78478   -6.33294
       H    11.79050   -7.54446   -1.63101
       O    11.31700   -6.69547   -1.77402
      H1    11.06030   -6.68896   -2.68704
       H     9.62990   -4.65030   -6.55594
       O    10.43599   -5.18604   -6.45539
      H1    10.23087   -5.98120   -6.86631
       H    16.74317   -3.53997    1.06133
       O    15.72863   -3.45200    1.20402
      H1    15.36194   -3.22708    0.30321
       H    13.07560   -7.08798   -5.43307
       O    12.15333   -7.33723   -5.35568
      H1    12.05202   -7.89456   -6.13644
       H    16.02841   -9.14624   -8.45658
       O    16.11267   -8.20673   -8.27406
      H1    16.51219   -8.17279   -7.36270
       H    12.70321    0.37781   -2.98851
       O    11.74757    0.61055   -2.91793
      H1    11.28825   -0.22960   -3.04250
       H    16.12620   -3.87166   -2.72697
       O    16.47551   -4.31552   -3.53082
      H1    15.81650   -4.99707   -3.71798
       H    15.35683   -8.02476   -4.61030
       O    15.61635   -8.00933   -5.52251
      H1    15.74876   -7.11157   -5.73336
       H    10.28049   -5.29308   -0.23110
       O     9.53067   -4.94689    0.28629
      H1     9.52460   -5.60435    1.03016
       H     9.82259   -8.41376   -7.29869
       O     9.53010   -7.62834   -7.77267
      H1     9.98225   -7.59718   -8.59466
       H    16.44492   -2.78304   -0.94499
       O    15.59429   -2.73027   -1.42669
      H1    15.39362   -1.80027   -1.59393
       H    12.08657   -4.93855   -7.73948
       O    12.86300   -4.94037   -8.27260
      H1    13.41860   -4.25825   -7.82163
       H    15.87004   -6.58373    0.47723
       O    15.15839   -6.00904    0.90226
      H1    15.44293   -5.10177    0.88797
       H    12.82738   -2.60007   -6.31697
       O    13.54390   -2.67765   -6.91117
      H1    13.74233   -1.84336   -7.41263
       H    13.83334   -1.24638   -0.32569
       O    14.45988   -0.72341    0.19496
      H1    14.23544   -0.95610    1.13913
       H    11.70085   -3.45673   -8.78296
       O    11.16567   -2.88721   -9.39992
      H1    11.22363   -2.00441   -8.97319
       H    14.02035   -5.48916   -2.91671
       O    14.04972   -5.59464   -3.87468
      H1    13.26825   -5.14642   -4.24554
       H    15.22634   -2.93572   -5.95940
       O    16.20300   -2.86236   -5.76678
      H1    16.35539   -3.45387   -4.99758
       H     9.80143   -7.35160   -1.21364
       O     9.20853   -8.01635   -0.81669
      H1     8.34542   -7.65551   -1.05613
       H    11.86631   -9.60609   -7.51819
       O    11.06177   -9.93559   -7.16956
      H1    10.80450  -10.63751   -7.82812
       H    11.76629   -3.15231   -4.03075
       O    12.10752   -3.70377   -4.74138
      H1    11.40122   -4.25466   -5.00487
       H    16.79625   -2.53436   -7.40426
       O    17.09184   -2.54439   -8.29092
      H1    17.57682   -3.43982   -8.36111
       H     8.66166   -8.44605   -4.01225
       O     8.31553   -9.25520   -4.29242
      H1     7.87450   -9.62113   -3.50241
       H    12.60178  -12.00095   -2.51890
       O    12.80080  -11.11224   -2.82384
      H1    12.05162  -10.90993   -3.42830
       H     7.24209   -5.16948   -6.10172
       O     7.73575   -4.75221   -5.35556
      H1     7.27784   -3.97244   -5.08462
       H    16.32907   -4.58852   -6.71240
       O    16.20588   -5.54643   -6.58184
      H1    15.46415   -5.83303   -7.12877
       H    10.54050   -7.48744   -4.52643
       O     9.77975   -7.07016   -4.09044
      H1     9.48935   -6.33700   -4.63733

