111
frame 8 | Written by MDAnalysis XYZWriter (release 2.4.3)
       H     4.71136   15.73980  -11.10628
       O     3.80953   15.82011  -10.91166
      H1     3.34681   15.65471  -11.72756
       H    -0.96981   16.00451   -2.26605
       O    -1.12355   16.46165   -1.44649
      H1    -1.13027   17.38628   -1.62070
       H    -3.94875   14.38405  -10.16935
       O    -4.38045   13.52335   -9.99745
      H1    -4.70096   13.20023  -10.85337
       H     2.28231   14.88721   -1.85024
       O     1.64005   14.18550   -2.03150
      H1     0.74265   14.48950   -1.82225
       H     3.29457   13.36072   -5.84642
       O     4.22277   13.47048   -6.10565
      H1     4.21401   14.06751   -6.84125
       H     3.09178   18.30988   -3.51510
       O     2.85513   18.31505   -2.58417
      H1     1.96710   18.64599   -2.53073
       H     0.44987   16.82309  -13.28461
       O     0.03604   15.97234  -12.99515
      H1     0.08209   16.07172  -12.04321
       H    -1.22537   19.18715   -5.38890
       O    -0.31596   18.90591   -5.15957
      H1     0.09328   18.55591   -5.95131
       H     1.07029   12.58926  -12.80997
       O     0.87684   12.99711  -11.96847
      H1     0.12186   12.42126  -11.63295
       H     1.78335   15.23220  -13.46628
       O     2.74524   15.28314  -13.36627
      H1     3.11358   14.69502  -14.06565
       H    -1.45426   18.87288  -10.54259
       O    -1.42334   18.66855   -9.58399
      H1    -2.19205   19.13340   -9.28435
       H    -1.25603   15.60561   -5.27694
       O    -1.24002   16.17126   -4.47770
      H1    -0.62936   16.89427   -4.65719
       H     3.38645   16.73072   -2.14476
       O     3.68264   15.86514   -2.02954
      H1     4.08071   15.81186   -1.15575
       H     1.22550   14.30713   -6.73193
       O     0.85313   14.69270   -7.54150
      H1     1.40426   14.58820   -8.32626
       H     2.93201   17.74951  -11.16901
       O     2.25705   18.36091  -11.42363
      H1     2.57773   19.22735  -11.19682
       H     1.98673   17.98511  -14.49108
       O     1.24869   18.18185  -13.96134
      H1     1.52353   18.26898  -13.07243
       H     5.11847   16.12617   -8.08361
       O     5.22092   15.19705   -8.12648
      H1     6.12287   14.99060   -7.82819
       H    -2.89069   16.54211   -4.22361
       O    -3.82074   16.85554   -4.07436
      H1    -3.90791   16.99075   -3.11416
       H    -5.16101   16.36356   -7.88794
       O    -5.35001   16.93504   -8.68178
      H1    -4.92373   17.79069   -8.35890
       H     6.66466   19.18481  -12.13228
       O     5.90181   19.72725  -11.93704
      H1     5.27691   19.47508  -12.62650
       H     6.35752   18.03474   -7.76873
       O     7.31732   18.09165   -7.55799
      H1     7.82274   17.89170   -8.37321
       H    -1.30551   11.22449   -7.01051
       O    -0.49304   10.71953   -6.80661
      H1    -0.06193   10.62454   -7.69127
       H     6.78273   14.24830  -10.63780
       O     6.19354   13.60198  -10.10313
      H1     5.91724   14.17316   -9.37637
       H     4.38886   17.81910   -5.72000
       O     4.37766   17.61679   -4.76874
      H1     5.29272   17.78290   -4.52297
       H     2.04330   13.59111  -10.66310
       O     2.37328   13.62472   -9.72982
      H1     3.09221   14.19935   -9.64649
       H     3.20283   18.01709   -8.07691
       O     4.06664   18.00858   -7.68166
      H1     4.37958   18.94053   -7.74255
       H     4.49554   14.47320   -2.92571
       O     4.73084   13.64354   -3.41918
      H1     4.60810   13.74046   -4.35936
       H     7.55830   16.20815   -6.90730
       O     7.95607   15.35764   -6.87280
      H1     7.86429   15.05381   -5.98342
       H     1.56798   13.95577   -4.40897
       O     1.53543   13.58095   -5.31625
      H1     1.38962   12.65031   -5.22833
       H    -3.37915   19.74478   -4.70265
       O    -3.03896   19.32723   -5.52313
      H1    -3.20904   18.38213   -5.38236
       H    -2.09857   14.03694   -5.99881
       O    -1.79932   14.61024   -6.69887
      H1    -0.85559   14.65963   -6.74840
       H    -2.75583   14.68561  -12.57889
       O    -3.23831   15.46120  -12.17280
      H1    -2.66089   15.80735  -11.46896
       H    -3.16172   12.71430   -4.10870
       O    -2.49526   12.97626   -4.71562
      H1    -1.69789   12.53691   -4.40443
       H     2.05304   10.27852   -7.66069
       O     1.69312   10.55252   -8.52500
      H1     2.13552   11.42414   -8.67665
       H    -2.86560   12.75797   -9.04976
       O    -1.99771   12.41733   -8.81645
      H1    -1.65042   13.28509   -8.51917
       H    -2.21370   15.70186   -8.55908
       O    -1.84962   15.91281   -9.43501
      H1    -1.74266   16.88559   -9.43495
       H     0.92145   16.48246   -7.84284
       O     1.04479   17.44967   -7.86964
      H1     0.54858   17.68406   -8.70584

