111
frame 8 | Written by MDAnalysis XYZWriter (release 2.4.3)
       H     5.23452   -8.29002    9.92708
       O     5.51040   -8.46265   10.86330
      H1     6.08705   -9.25600   10.78111
       H     3.93486   -2.43416   12.77800
       O     4.63357   -2.50424   12.10396
      H1     4.31972   -2.01704   11.33185
       H     4.25029   -8.16740    5.57137
       O     3.90928   -7.42181    6.13375
      H1     4.41907   -6.63625    5.72832
       H     5.29069   -7.52059    7.45172
       O     6.04489   -7.62871    8.06009
      H1     6.77118   -8.08592    7.59205
       H    -1.07932   -6.13345    5.83489
       O    -0.95642   -6.98697    6.34400
      H1    -1.79131   -7.43559    6.26276
       H     4.39591   -4.23435    8.08053
       O     5.06709   -4.36808    8.76743
      H1     4.57556   -4.72273    9.56141
       H     2.59953   -3.28925    7.23348
       O     2.69988   -4.12768    6.81315
      H1     2.22263   -4.71321    7.41858
       H     1.33279   -6.81350   14.42764
       O     2.02314   -6.51527   15.03767
      H1     2.83318   -6.82366   14.71449
       H    -3.58459   -4.83290   12.02278
       O    -3.12037   -4.06169   11.70039
      H1    -3.11783   -4.15208   10.75934
       H    -0.91905   -7.45816   13.02867
       O    -0.28455   -6.77984   13.46945
      H1     0.10964   -6.31435   12.78105
       H     4.27609   -4.97758   15.53205
       O     4.74796   -4.13609   15.46615
      H1     5.64061   -4.35687   15.02479
       H    -0.79308   -4.34388    7.81793
       O    -1.34865   -3.67692    7.39460
      H1    -0.88573   -2.93485    6.95022
       H    -2.77310   -6.70089    9.44830
       O    -1.86996   -7.01162    9.65208
      H1    -1.38771   -6.25997    9.11273
       H    -2.80462   -8.95982   12.29218
       O    -1.94982   -8.54437   12.05388
      H1    -2.11542   -8.12802   11.11863
       H     2.95342   -0.35137   10.87709
       O     3.56538   -0.86001   10.35075
      H1     4.40121   -0.34389   10.29190
       H    -0.23992   -3.31534   14.07403
       O    -1.07548   -3.12111   13.52095
      H1    -1.14646   -2.17571   13.48815
       H     6.45893   -7.19770   11.06114
       O     6.84858   -6.31441   11.17711
      H1     7.32814   -6.12456   10.33676
       H    -0.33222   -2.32783   10.39923
       O     0.08050   -2.73182   11.15775
      H1    -0.59432   -2.85601   11.81792
       H    -1.76039   -4.25239   14.61023
       O    -2.17512   -4.80898   15.23484
      H1    -1.93254   -5.67076   14.85418
       H     4.70002  -10.39138   14.52862
       O     5.04688   -9.90446   13.74689
      H1     4.39105   -9.91387   13.02289
       H    -0.83348  -10.13191    8.06859
       O    -1.32218  -10.75579    7.48666
      H1    -0.69637  -11.38682    7.06220
       H    -0.30883   -9.57838   11.83521
       O     0.22467  -10.16277   11.24820
      H1     1.06239  -10.19571   11.66171
       H     2.70571   -0.90193   13.67888
       O     3.23265   -1.54629   14.20116
      H1     3.93691   -1.14434   14.70109
       H     2.14606   -5.91110   11.18608
       O     1.27290   -5.84216   10.81784
      H1     0.98134   -4.94611   11.09386
       H    -2.47470   -1.12594    8.95945
       O    -1.59335   -1.47963    9.13288
      H1    -1.36031   -2.20246    8.48581
       H     3.02297   -7.87804    7.64891
       O     2.81438   -8.43474    8.38621
      H1     1.89786   -8.31575    8.73517
       H     4.23353   -4.32291   11.51404
       O     4.28453   -5.25673   11.22756
      H1     5.19054   -5.53559   11.33482
       H    -0.01087   -9.30116    9.91350
       O    -0.14161   -8.93608    9.01308
      H1    -0.78866   -8.20440    9.00232
       H     4.38458   -6.72465   12.78557
       O     4.35391   -7.07550   13.67747
      H1     4.66691   -7.99506   13.63958
       H     3.82676   -9.75010   11.26308
       O     3.20916  -10.19592   11.83261
      H1     3.42023  -11.11289   11.81771
       H     2.79387   -0.74741    6.88074
       O     2.35377   -1.44335    7.37945
      H1     2.71024   -1.41312    8.29340
       H     0.03105   -8.61157    5.90403
       O     0.68564   -9.20717    5.53633
      H1     0.92384   -9.79416    6.25172
       H     2.93120  -11.07490    7.58833
       O     2.03171  -10.99064    7.83915
      H1     1.98406  -10.10163    8.26465
       H     2.04776   -2.98384   14.90408
       O     1.46022   -3.75596   14.69041
      H1     2.00774   -4.53847   14.80961
       H    -0.52040   -5.28807   16.04169
       O     0.03905   -5.88830   16.58286
      H1     0.80486   -6.12723   16.04926
       H     0.77900   -1.05157   12.18030
       O     1.22788   -0.36060   12.68120
      H1     0.94411    0.53762   12.53143
       H     0.48129   -6.49248    7.74994
       O     0.54290   -5.57790    8.18703
      H1     0.88229   -5.65816    9.08745

