111
frame 0 | Written by MDAnalysis XYZWriter (release 2.4.3)
       H   -19.53722   17.31447  -17.71017
       O   -18.66409   17.63485  -17.94918
      H1   -18.86047   18.38704  -18.53512
       H   -17.93243   12.12527  -11.61791
       O   -18.47428   11.36282  -11.49713
      H1   -18.52994   11.19669  -10.55221
       H   -12.49464   10.19318  -13.86066
       O   -12.15017   10.65823  -14.61596
      H1   -12.68145   11.41420  -14.74164
       H   -11.33229   12.04974  -11.88614
       O   -12.08735   12.41190  -11.46931
      H1   -12.64609   12.40699  -12.25411
       H   -14.12838   13.55914  -13.68580
       O   -13.91113   12.58857  -13.57874
      H1   -14.78869   12.18277  -13.55242
       H   -14.73154   16.03449  -12.89529
       O   -15.09599   16.45970  -12.06019
      H1   -15.59725   15.86252  -11.51360
       H   -17.67521    6.90389  -16.64582
       O   -17.41527    5.95165  -16.69859
      H1   -17.32692    5.82234  -17.63940
       H   -13.02839    4.93046  -18.20327
       O   -13.45796    4.36157  -18.84645
      H1   -13.28815    3.44524  -18.57499
       H    -9.39707   10.57766  -16.16492
       O    -9.66432   11.21620  -15.49185
      H1   -10.29774   10.76566  -14.96445
       H   -13.06149    7.20137  -17.48505
       O   -12.20493    6.86484  -17.89186
      H1   -12.04346    7.32583  -18.71508
       H   -13.72085   10.28580  -11.92089
       O   -13.25984    9.56628  -12.37183
      H1   -12.38727    9.52907  -11.98089
       H   -17.10173   15.77834  -13.45598
       O   -17.57331   16.03757  -14.26571
      H1   -17.02510   16.62649  -14.81081
       H   -14.47508   10.48916  -19.10599
       O   -15.37861   10.25329  -19.49206
      H1   -15.35119    9.27141  -19.71499
       H   -17.26570   10.61553  -18.51071
       O   -17.92717   10.76035  -17.82654
      H1   -17.53839   10.18314  -17.11820
       H   -16.82818   14.01454  -16.64977
       O   -17.46185   13.81745  -15.89124
      H1   -17.49644   14.58578  -15.30309
       H   -15.97544    4.04726  -14.25597
       O   -15.61482    4.93642  -14.32989
      H1   -16.23795    5.31506  -14.95486
       H   -13.12332   15.30310  -14.43604
       O   -14.13270   15.30794  -14.34050
      H1   -14.40487   15.16135  -15.24462
       H   -11.76247    9.97182  -16.31246
       O   -11.63173   10.03070  -17.32152
      H1   -11.51517    9.12827  -17.67240
       H   -17.56311   14.47334  -10.61170
       O   -16.70931   14.08393  -10.76021
      H1   -16.50249   13.59561   -9.86037
       H   -13.02925   15.00440  -19.67118
       O   -13.58459   15.58267  -19.13784
      H1   -14.15621   16.11208  -19.72466
       H   -12.74129   16.74264  -17.82013
       O   -11.95900   17.21232  -17.48873
      H1   -11.95398   16.80858  -16.59319
       H   -12.55926   13.06516  -17.42483
       O   -12.84652   13.13875  -16.50245
      H1   -12.10374   13.31831  -16.00105
       H   -18.69048    8.65504  -15.68455
       O   -17.78831    8.68994  -15.94637
      H1   -17.33806    8.66742  -15.02454
       H   -18.42411    3.28855  -13.13553
       O   -18.76229    3.87868  -13.86723
      H1   -18.63008    4.76878  -13.43175
       H   -12.24011   10.85837  -18.65270
       O   -12.84511   11.39411  -19.17545
      H1   -12.26733   12.06980  -19.57003
       H   -19.14085    7.52474  -13.37926
       O   -18.69029    7.00100  -12.68728
      H1   -19.24280    7.04206  -11.91464
       H   -15.54071    5.81405  -12.68871
       O   -15.99698    6.43122  -12.14209
      H1   -16.84197    6.57342  -12.54395
       H   -15.94576   11.19389  -15.01645
       O   -16.50273   11.66414  -14.36365
      H1   -16.92271   12.40127  -14.93048
       H   -19.36910   13.06035  -16.82122
       O   -19.78073   12.84540  -17.66303
      H1   -19.16160   12.13622  -17.92781
       H   -17.40913   17.86457  -16.54537
       O   -16.65302   18.05851  -15.96105
      H1   -16.06470   18.60830  -16.48759
       H   -14.09239   14.20201  -16.64459
       O   -14.87847   14.76680  -16.94194
      H1   -14.59480   15.03340  -17.82145
       H   -13.53612   10.35743  -17.00797
       O   -14.27775   10.60723  -16.43119
      H1   -14.02194   11.53033  -16.38928
       H   -11.51763    6.07112  -16.59064
       O   -10.97268    5.54081  -15.95901
      H1   -11.68828    5.11557  -15.40776
       H   -15.44969    6.97497  -16.47624
       O   -14.48174    7.15839  -16.46696
      H1   -14.36761    7.76925  -15.73993
       H   -15.83845    8.31021  -13.16341
       O   -16.19279    8.86429  -13.87315
      H1   -16.24488    9.82067  -13.66379
       H   -16.92743   15.86967  -19.80303
       O   -16.83577   16.81790  -19.60399
      H1   -17.46793   17.09425  -18.93522
       H   -15.55364   10.21566  -10.95482
       O   -15.32309   11.15778  -10.97536
      H1   -16.03897   11.64377  -11.36955

