111
frame 11 | Written by MDAnalysis XYZWriter (release 2.4.3)
       H     9.28104   -3.05975   16.55243
       O     9.91249   -2.91155   15.81929
      H1    10.48728   -3.66740   15.78090
       H     7.63200   -8.30033   19.78767
       O     7.66034   -9.15965   19.34923
      H1     7.49614   -9.00787   18.40597
       H     5.63031    5.62098   18.67321
       O     5.20652    5.27878   17.88026
      H1     4.89359    4.41754   18.18310
       H     2.15682   -0.13376   19.56191
       O     2.83991   -0.15108   18.84690
      H1     3.23377   -1.00184   19.08630
       H     2.28511   -6.14621   14.47129
       O     3.05591   -6.10386   15.03461
      H1     3.78360   -6.15079   14.37621
       H    10.66923   -1.28057   18.57313
       O    10.29881   -1.59675   19.38458
      H1    10.98147   -2.10136   19.81646
       H     5.57103   -4.86366   15.29507
       O     5.83786   -3.93672   15.18781
      H1     6.77425   -3.96391   14.74252
       H     6.20019   -0.75938   17.14719
       O     6.67268   -1.24561   16.42883
      H1     6.02332   -1.70794   15.89972
       H     0.72259    1.68017   16.60343
       O     0.67319    2.59653   16.24778
      H1     0.12897    3.08981   16.89595
       H    -1.44490    1.13668   19.83186
       O    -1.15493    0.29005   19.45314
      H1    -1.05711    0.46017   18.49643
       H     1.45283   -3.09732   15.29643
       O     0.63235   -3.59456   15.27505
      H1    -0.13142   -3.01128   15.50650
       H    -0.53575   -6.89442   17.56399
       O    -1.05630   -7.70906   17.32627
      H1    -0.77128   -8.06558   16.48240
       H    -0.57980   -3.50636   12.22551
       O     0.39223   -3.36990   12.38529
      H1     0.44371   -3.52399   13.35911
       H    -1.66166   -1.49506   14.53568
       O    -2.06580   -1.93938   15.29280
      H1    -3.05964   -2.04774   15.20397
       H     4.91902   -0.94145   12.92992
       O     5.43876   -0.25372   13.45124
      H1     5.07344   -0.39926   14.33927
       H     1.38004   -0.19057   15.60521
       O     1.02714   -0.07236   16.49930
      H1     1.50295   -0.66019   17.11234
       H     6.43756    2.19448   15.14447
       O     5.83458    2.99721   15.08204
      H1     5.02859    2.76330   15.52246
       H     2.75654   -6.46529   18.40439
       O     2.12506   -7.10836   18.64810
      H1     1.41592   -6.50743   18.90995
       H     3.99703    2.89009   19.57049
       O     4.54584    2.70349   18.77487
      H1     4.84546    1.72989   18.79908
       H     7.99939   -3.03926   19.00422
       O     7.90114   -3.10067   18.05358
      H1     7.37367   -2.31744   17.78918
       H     4.47829   -8.40718   19.16031
       O     4.67195   -8.39964   18.22097
      H1     3.84664   -8.12412   17.75188
       H     1.66461   -8.81822   18.76345
       O     1.42382   -9.73771   18.77606
      H1     2.19141  -10.27258   19.12357
       H    -3.58771   -0.10987   17.09994
       O    -2.79276    0.30068   16.81176
      H1    -2.33215   -0.46224   16.38452
       H    -1.58879    3.28471   19.06237
       O    -0.69885    3.37187   18.66934
      H1    -0.23133    3.86326   19.34489
       H     3.49060   -5.04983   16.87216
       O     3.79062   -5.20489   17.80366
      H1     4.76477   -5.28300   17.77345
       H     2.49730    2.59755   16.33000
       O     3.46722    2.76571   16.33957
      H1     3.84771    2.48852   17.13867
       H     4.37998   -3.12656   14.79152
       O     3.60462   -2.55747   14.85494
      H1     3.56530   -2.18517   13.93570
       H     7.02744    0.40953   14.01700
       O     7.68691    0.77362   14.64901
      H1     7.55622    0.24759   15.47381
       H    -1.36559   -4.15553   18.02151
       O    -2.29291   -3.69778   17.98354
      H1    -2.29205   -3.38994   17.06201
       H     0.50517   -4.73282   18.98042
       O     0.06841   -5.03061   18.17188
      H1     0.75279   -4.89884   17.52283
       H     5.96256   -8.80662   17.14414
       O     6.73557   -9.06625   16.65299
      H1     6.92908   -8.23145   16.16263
       H     0.89622    0.25967   13.07193
       O     1.56778    0.38822   13.76246
      H1     2.02750    1.23437   13.56062
       H     4.60621   -0.24754   18.65621
       O     5.51359    0.05330   18.49699
      H1     6.16019   -0.30627   19.16283
       H    -3.37863   -5.37093   17.59919
       O    -4.04131   -6.05267   17.48441
      H1    -4.83188   -5.58550   17.19687
       H     7.41018   -6.19223   17.03769
       O     6.84068   -5.54301   17.47201
      H1     7.36423   -4.72151   17.42303
       H     3.89450   -3.15436   18.73086
       O     3.80996   -2.57987   19.47157
      H1     3.14614   -3.01877   20.03416
       H     1.96082   -9.14535   16.24035
       O     2.85091   -8.74014   16.09798
      H1     2.79557   -7.80296   15.96445

