111
frame 3 | Written by MDAnalysis XYZWriter (release 2.4.3)
       H    -5.54233   -8.00578   -2.31978
       O    -5.04007   -8.09945   -1.48293
      H1    -4.90725   -7.22011   -1.13018
       H   -10.59166  -15.93970   -3.40681
       O   -10.13333  -15.29189   -4.02853
      H1    -9.50935  -15.91651   -4.46403
       H    -3.57972  -17.96728   -5.00663
       O    -2.65721  -18.13551   -5.19327
      H1    -2.42426  -17.40470   -5.80175
       H   -10.66967  -13.77862   -7.22002
       O   -10.02321  -13.09210   -7.28034
      H1    -9.80058  -12.87139   -6.36959
       H    -5.71580  -19.77106   -2.04634
       O    -5.86939  -19.19797   -1.23848
      H1    -6.71369  -18.74914   -1.36194
       H    -1.08049  -14.62360   -5.60642
       O    -0.71233  -13.83942   -5.10349
      H1    -1.49447  -13.30033   -4.93509
       H    -8.91519  -17.60144   -5.71370
       O    -8.27947  -16.86507   -5.48474
      H1    -7.78340  -16.66597   -6.33520
       H     0.70212  -14.18187   -4.02863
       O     1.38747  -13.98889   -3.37878
      H1     0.92963  -13.91966   -2.54696
       H   -10.64641  -13.18462   -0.45773
       O   -10.07996  -12.44128   -0.74473
      H1   -10.64108  -11.64259   -0.68523
       H    -5.37923  -16.13237   -7.40112
       O    -6.11380  -16.76222   -7.60910
      H1    -6.69782  -16.30143   -8.26341
       H    -2.97212  -11.42652   -3.97952
       O    -3.07378  -12.05559   -4.76670
      H1    -2.69396  -11.71906   -5.59395
       H    -7.02808  -16.20383    2.49519
       O    -6.22234  -15.62645    2.35833
      H1    -6.15092  -15.60151    1.41202
       H    -4.94839  -11.50264    1.29116
       O    -4.91443  -10.98462    2.11797
      H1    -5.08568  -11.69135    2.77499
       H    -9.44322  -13.59856   -3.55621
       O    -9.46074  -12.67191   -3.46614
      H1    -9.71619  -12.52179   -2.56857
       H    -4.20121  -14.00918   -7.23796
       O    -4.38269  -14.78803   -6.69908
      H1    -4.79521  -14.48540   -5.83278
       H    -5.07004  -14.92616   -1.22135
       O    -4.51735  -14.25767   -1.66401
      H1    -3.65144  -14.57262   -1.92624
       H    -6.10453  -18.16283   -5.87520
       O    -5.64684  -18.47312   -5.14041
      H1    -6.31743  -18.58666   -4.44246
       H    -6.87658   -7.11254   -3.63095
       O    -6.26471   -7.82956   -3.80462
      H1    -6.78479   -8.53563   -4.14451
       H    -8.41572   -9.24382   -6.12858
       O    -7.62960   -9.73371   -5.75169
      H1    -8.06953  -10.29559   -5.06003
       H    -1.01212  -15.12257   -1.13560
       O    -1.92036  -15.46321   -1.18690
      H1    -1.80138  -16.11698   -1.90016
       H    -2.59812  -15.53393   -6.70273
       O    -1.73564  -15.90830   -6.62983
      H1    -1.39848  -15.93856   -7.52427
       H    -3.09637  -11.40358   -7.91090
       O    -3.61441  -12.20794   -7.77195
      H1    -4.47168  -11.85253   -7.56955
       H    -2.33312  -15.96392    0.60822
       O    -2.31613  -16.07579    1.55659
      H1    -2.63643  -15.25257    1.89446
       H    -4.71060  -13.14408   -4.46613
       O    -5.39406  -13.74179   -4.18157
      H1    -5.01678  -13.96657   -3.33940
       H    -8.61045   -9.23648   -2.33158
       O    -9.32989   -8.85894   -1.80136
      H1   -10.01289   -8.38829   -2.34372
       H    -7.79352  -11.66298   -3.31621
       O    -7.27477  -10.97080   -2.88015
      H1    -6.47771  -11.36042   -2.50098
       H    -4.48723  -10.93306   -1.14188
       O    -5.14780  -11.58311   -0.83987
      H1    -4.75688  -12.41682   -1.11977
       H     0.14310  -12.94491   -1.00724
       O     0.33205  -13.88195   -0.94154
      H1     1.28664  -13.98068   -0.63407
       H    -7.00528  -16.27199   -1.01624
       O    -6.47502  -15.66485   -0.45651
      H1    -6.95923  -14.82299   -0.33533
       H    -1.86933  -17.62410   -3.70809
       O    -1.52912  -17.58086   -2.79029
      H1    -1.86958  -18.41241   -2.35905
       H    -1.95580   -7.61068   -5.10359
       O    -2.29903   -8.50185   -5.15726
      H1    -3.22436   -8.49365   -4.78129
       H    -6.85937  -12.34244   -0.04906
       O    -7.45457  -13.06583    0.15107
      H1    -8.29877  -12.66274   -0.12851
       H    -8.48051  -17.83846   -2.55319
       O    -7.67905  -17.29902   -2.65141
      H1    -7.85897  -16.82076   -3.50794
       H    -6.84529  -11.11569   -6.96691
       O    -6.39325  -11.92109   -7.32330
      H1    -6.63793  -11.97511   -8.29842
       H    -0.97983  -10.84628   -3.28973
       O    -0.54590  -10.34768   -4.02243
      H1    -1.13599   -9.70183   -4.37767
       H    -2.97385   -9.78412   -1.94743
       O    -2.70169  -10.69137   -2.28243
      H1    -1.91942  -10.87701   -1.72252
       H    -0.62688  -11.00488   -0.31084
       O    -0.38357  -11.19040   -1.24733
      H1     0.49409  -10.87099   -1.44802

