111
frame 6 | Written by MDAnalysis XYZWriter (release 2.4.3)
       H    -5.26204   -7.24303   -2.56719
       O    -5.53987   -7.63905   -1.72365
      H1    -4.88700   -7.70367   -1.02502
       H    -4.80785   -2.83405   -7.59028
       O    -4.19454   -2.09775   -7.41211
      H1    -4.27626   -1.42420   -8.15726
       H    -1.51945   -8.60160   -2.38910
       O    -0.75317   -9.05996   -2.84218
      H1    -1.11168   -9.27715   -3.75717
       H    -2.00413   -5.23044   -5.82638
       O    -2.85566   -4.92330   -6.18602
      H1    -2.51425   -4.31614   -6.80478
       H    -4.55281   -2.96032   -3.85553
       O    -4.01778   -3.75075   -3.71116
      H1    -3.06917   -3.48328   -3.89887
       H    -9.90120   -6.04544   -5.16415
       O    -9.80316   -5.62387   -4.32223
      H1   -10.69709   -5.14375   -4.24168
       H    -7.99934   -5.20454  -10.61089
       O    -7.91854   -5.52361   -9.71999
      H1    -7.94172   -6.51048   -9.77232
       H    -7.67358   -4.64562   -4.72361
       O    -6.89487   -4.09144   -4.57117
      H1    -6.60270   -3.89468   -5.48111
       H    -7.31153   -5.62572   -7.57160
       O    -7.93281   -6.17450   -7.05796
      H1    -7.25661   -6.68459   -6.50931
       H    -4.18620  -11.05240   -3.45803
       O    -3.82757  -11.45108   -4.31615
      H1    -4.53012  -11.63503   -4.92610
       H    -7.40395   -9.16190  -10.20376
       O    -7.61808   -8.37808   -9.67843
      H1    -6.77719   -7.97621   -9.48939
       H   -12.06798   -6.45135   -9.35056
       O   -12.25873   -7.05643   -8.62048
      H1   -11.50626   -7.27309   -8.07016
       H   -10.15683  -10.32638   -6.63621
       O   -10.20489  -10.15569   -5.69907
      H1   -10.91169  -10.69330   -5.35571
       H   -10.44635   -8.48516   -6.24225
       O   -10.36787   -7.63423   -6.66255
      H1    -9.45978   -7.49201   -7.00695
       H    -5.78993   -7.20692   -5.11411
       O    -6.40855   -7.68359   -5.70585
      H1    -6.53713   -8.59154   -5.39335
       H    -8.80513   -7.63799   -1.41276
       O    -8.11376   -7.65538   -0.64629
      H1    -7.29567   -7.52452   -1.12073
       H    -8.03051  -10.38530   -4.72462
       O    -7.50139   -9.79532   -4.19678
      H1    -7.01043  -10.34804   -3.62124
       H    -4.72283   -6.49759   -9.92819
       O    -4.93372   -7.30925   -9.42787
      H1    -4.42614   -7.24284   -8.58115
       H    -3.70201   -7.06742   -4.07212
       O    -4.52650   -6.60146   -4.12173
      H1    -4.32694   -5.64921   -4.00405
       H    -3.51759  -12.25594   -8.44272
       O    -4.27369  -12.79074   -8.89661
      H1    -4.98749  -12.16317   -9.07440
       H    -1.41573  -11.82247   -8.39301
       O    -2.19844  -11.63609   -7.73059
      H1    -1.98982  -10.83367   -7.18413
       H    -6.04233   -1.10165   -4.42905
       O    -5.94747   -1.68930   -3.67207
      H1    -6.43038   -2.45630   -3.89595
       H    -8.69577   -8.74970   -3.49360
       O    -9.28523   -8.06438   -3.11289
      H1    -9.31594   -7.35489   -3.74212
       H    -7.69575  -12.65010   -2.42831
       O    -6.81095  -12.31024   -2.63542
      H1    -6.23305  -13.04103   -2.41308
       H    -9.21339   -4.85715   -7.10960
       O    -9.59091   -4.00911   -7.41317
      H1    -9.10305   -3.94753   -8.21824
       H    -4.72186   -7.54845   -6.65464
       O    -3.81795   -7.49382   -6.99062
      H1    -3.42765   -6.67975   -6.60809
       H    -2.47613   -4.27087   -1.08939
       O    -2.89470   -4.97001   -1.67378
      H1    -3.36393   -4.54615   -2.48965
       H    -7.68110   -3.84762   -2.40930
       O    -7.37423   -3.71272   -1.50584
      H1    -7.73790   -4.51501   -1.07137
       H    -6.46771  -12.76027   -5.13766
       O    -5.84935  -12.90776   -5.86002
      H1    -6.23449  -12.56747   -6.64299
       H    -2.13634   -8.10392  -10.12309
       O    -2.76300   -8.85736  -10.03864
      H1    -3.60745   -8.44233   -9.83224
       H    -8.62185   -9.46528   -8.69089
       O    -8.96157  -10.24982   -8.23655
      H1    -9.52094  -10.76245   -8.87380
       H    -7.33509  -12.87232   -8.50025
       O    -6.96821  -11.98309   -8.58885
      H1    -7.78412  -11.39007   -8.29184
       H   -10.36390   -9.56255   -2.62114
       O   -10.98355  -10.08351   -2.09491
      H1   -11.80421  -10.13117   -2.63729
       H    -2.96620  -10.35026   -5.18588
       O    -2.29491   -9.81505   -5.63269
      H1    -2.82381   -9.29694   -6.21545
       H    -4.86981   -9.59643   -1.56782
       O    -4.50537  -10.34648   -2.02742
      H1    -3.77037  -10.68721   -1.47204
       H   -12.39243   -5.53987   -7.46746
       O   -12.21924   -4.71379   -6.94342
      H1   -11.23666   -4.58395   -6.97628
       H    -4.85517   -5.18312   -7.10812
       O    -5.51470   -4.67426   -7.58318
      H1    -5.59732   -5.14223   -8.41976

