111
frame 8 | Written by MDAnalysis XYZWriter (release 2.4.3)
       H   -13.48002  -13.61429  -17.70376
       O   -13.88285  -13.20202  -18.45661
      H1   -14.49712  -12.57805  -18.06671
       H   -12.01957  -15.26478  -17.12638
       O   -12.33372  -14.43297  -16.76572
      H1   -11.55323  -13.88797  -16.81095
       H    -9.09724  -12.72472  -18.15001
       O    -9.88009  -12.61837  -18.70388
      H1    -9.63030  -12.45470  -19.59590
       H   -11.20757  -10.86995  -13.21139
       O   -11.39069  -11.39048  -13.98090
      H1   -10.61540  -11.90139  -14.16424
       H   -14.76415  -16.54276  -19.45839
       O   -14.60762  -17.36403  -18.95038
      H1   -14.13119  -17.97558  -19.51149
       H   -12.93140   -9.55246  -14.07008
       O   -13.47519   -8.91019  -13.56151
      H1   -14.20847   -9.46583  -13.23623
       H   -13.76634  -16.60803  -14.42552
       O   -12.94464  -16.13651  -14.55346
      H1   -12.99287  -15.48642  -15.22452
       H   -17.62490  -13.69594  -17.57191
       O   -17.28051  -14.54178  -17.23946
      H1   -16.40352  -14.32082  -16.84746
       H   -14.27848  -11.07900  -16.32367
       O   -15.10061  -11.57145  -16.50345
      H1   -15.77265  -10.87486  -16.25776
       H   -18.48604   -6.74482  -15.68421
       O   -19.17661   -6.62654  -16.34347
      H1   -19.18396   -7.45738  -16.84216
       H   -10.78335   -8.63978  -18.66709
       O   -10.14186   -7.92058  -18.25276
      H1    -9.30286   -8.43547  -18.14014
       H    -8.72021  -13.31284  -14.76884
       O    -9.25639  -12.84337  -15.40297
      H1    -8.59629  -12.31608  -15.94530
       H   -16.38814  -10.28947  -18.25934
       O   -16.25454   -9.40714  -18.71173
      H1   -16.39050   -8.80449  -18.00538
       H   -16.44623  -14.41868  -11.88657
       O   -16.31053  -13.67800  -12.46584
      H1   -15.37417  -13.52516  -12.57740
       H   -14.88984  -12.86464  -15.33819
       O   -14.87544  -13.83135  -15.05479
      H1   -14.41886  -13.78724  -14.20212
       H   -20.16438  -13.32866  -15.94257
       O   -19.46706  -13.90981  -15.52360
      H1   -18.81093  -14.18546  -16.18390
       H   -12.61283   -8.73126  -16.52986
       O   -12.57451   -7.88665  -16.98029
      H1   -11.82035   -7.75183  -17.58768
       H   -11.54093  -10.17695  -19.90816
       O   -11.37329  -10.24084  -18.95708
      H1   -10.85559  -11.02071  -18.81552
       H   -18.41867  -11.94138  -18.89363
       O   -18.15555  -12.06044  -17.98274
      H1   -18.90955  -11.67409  -17.51926
       H   -15.93688  -10.95779  -11.72399
       O   -15.85298  -10.21475  -12.26396
      H1   -15.78168   -9.52202  -11.66161
       H   -15.18479  -14.02182  -19.11143
       O   -15.84765  -14.62136  -19.47051
      H1   -16.39726  -14.83189  -18.69046
       H   -14.94250   -5.98560  -17.10179
       O   -15.06851   -6.92921  -17.03213
      H1   -14.09719   -7.18488  -17.06410
       H   -17.13992  -18.16809  -17.19993
       O   -16.73619  -18.59931  -17.96934
      H1   -15.95367  -18.08062  -18.18775
       H   -12.89526  -13.06341  -13.05824
       O   -13.57040  -13.73432  -12.74843
      H1   -13.28629  -14.62121  -13.00794
       H   -11.79753   -7.09717  -15.67422
       O   -11.32649   -6.66385  -14.92898
      H1   -10.47222   -6.41838  -15.36573
       H   -17.64869  -16.02425  -12.59028
       O   -17.87421  -16.07450  -13.56406
      H1   -17.93902  -15.14598  -13.86444
       H   -18.61668  -12.71878  -14.40268
       O   -18.23682  -11.95917  -13.85659
      H1   -17.54105  -12.38095  -13.35403
       H   -10.36601  -17.80982  -18.01995
       O   -10.48769  -16.87123  -18.05206
      H1    -9.59550  -16.49946  -18.30799
       H   -13.65290  -19.29108  -11.53276
       O   -14.61076  -19.10949  -11.71423
      H1   -14.72292  -18.56445  -12.48566
       H    -7.58878  -15.67120  -19.30334
       O    -7.94500  -15.84321  -18.42441
      H1    -7.09881  -15.88273  -17.85063
       H   -15.31004   -6.50461  -18.98853
       O   -15.39073   -6.41849  -19.97277
      H1   -15.32915   -5.51600  -20.19085
       H   -17.58443  -10.46282  -15.04083
       O   -17.11351   -9.86764  -15.59660
      H1   -17.14917   -9.04056  -15.11192
       H   -11.01367  -16.71066  -14.11586
       O   -10.38623  -17.22237  -13.57037
      H1    -9.51919  -16.92895  -13.89176
       H   -18.76381  -18.35592  -15.62748
       O   -18.36048  -17.53074  -15.93858
      H1   -18.18460  -16.93477  -15.20358
       H   -15.48769  -18.53907  -14.62545
       O   -15.35082  -17.75402  -14.11447
      H1   -16.24479  -17.45832  -13.96917
       H   -10.32654  -19.49879  -16.54533
       O   -10.34979  -19.43331  -17.52192
      H1    -9.49058  -19.76203  -17.77464
       H   -11.96137  -10.66555  -16.94042
       O   -12.49812  -10.42695  -16.15787
      H1   -12.04631  -10.92324  -15.46852

