114
frame 7 | Written by MDAnalysis XYZWriter (release 2.4.3)
       H   -15.76200   -5.62176    9.87055
       O   -16.38532   -6.38358    9.85816
      H1   -17.16793   -6.03435    9.44070
       H   -17.86982   -9.88994   11.92715
       O   -18.11699  -10.75542   12.28656
      H1   -19.07766  -10.95603   12.34896
       H   -16.87379   -4.81390   13.34111
       O   -16.12176   -4.19312   13.48380
      H1   -16.13767   -4.21314   14.43959
       H   -13.46385   -8.34297    8.45454
       O   -14.19296   -8.81840    8.85738
      H1   -14.83683   -8.14621    9.05143
       H   -16.46227   -2.67350   12.53318
       O   -16.25734   -2.18251   11.71400
      H1   -17.09536   -1.70231   11.58353
       H   -17.37974   -7.42842   11.01038
       O   -18.02248   -8.02982   11.47408
      H1   -18.82566   -8.05714   10.90634
       H    -9.81566   -4.60744    8.98532
       O    -9.29945   -4.60762    8.16189
      H1    -9.27673   -5.53034    7.88623
       H   -18.08014  -10.23848    9.17990
       O   -17.76577   -9.44804    8.75712
      H1   -17.28871   -9.04732    9.52255
       H   -14.26562   -5.25920   11.47929
       O   -14.50502   -4.58530   10.85918
      H1   -13.75957   -4.56600   10.27736
       H   -17.42764   -6.56527   14.04803
       O   -17.94504   -6.15807   13.39447
      H1   -17.93210   -6.78320   12.65566
       H   -17.20288    0.95937    8.84209
       O   -16.80255    0.67285    9.69321
      H1   -16.21772   -0.13748    9.56964
       H   -10.58169   -3.73606    7.16159
       O   -11.03709   -3.04641    6.67925
      H1   -10.30436   -2.46187    6.39508
       H   -12.56650    0.22467   11.31522
       O   -12.24682   -0.09805   10.49305
      H1   -12.97849   -0.56176   10.05921
       H   -15.17858   -1.29175   12.92711
       O   -14.90138   -0.46997   13.31968
      H1   -13.98374   -0.66304   13.52854
       H   -13.38867   -7.33455   11.87445
       O   -13.94462   -7.07450   12.60706
      H1   -13.37494   -6.41211   13.11609
       H   -12.97631   -3.57388    4.25798
       O   -13.78808   -3.47054    4.76637
      H1   -13.76485   -4.09975    5.48601
       H   -13.94485  -10.50154   11.76374
       O   -13.27334  -10.46614   11.02956
      H1   -13.56881   -9.74955   10.40287
       H   -17.98973   -2.90240    9.96577
       O   -18.07185   -3.19778    9.08350
      H1   -18.75297   -2.58011    8.74489
       H   -12.07816   -5.93241    5.12330
       O   -11.92488   -6.88431    5.08827
      H1   -12.52049   -7.33103    4.54235
       H   -14.88370   -1.93825    8.65617
       O   -14.81988   -1.34470    9.41052
      H1   -15.06954   -1.88313   10.12889
       H   -20.35175   -2.07868    7.17554
       O   -19.69655   -1.37234    6.98532
      H1   -18.82466   -1.73850    6.78393
       H   -11.42769   -7.84306    8.11072
       O   -12.19896   -7.49168    7.75737
      H1   -11.96861   -7.28624    6.75383
       H   -13.74736   -6.70938   16.40309
       O   -14.09295   -5.85462   16.02920
      H1   -15.02097   -5.98704   15.81459
       H   -18.38589   -4.52168    4.37417
       O   -18.32644   -3.61421    3.98705
      H1   -17.48116   -3.69617    3.51836
       H   -16.86200   -7.24010   16.13445
       O   -16.80312   -6.29853   15.81084
      H1   -17.68946   -5.97986   15.90925
       H   -11.66134   -3.62918   13.24141
       O   -10.90131   -3.03237   13.25052
      H1   -10.82790   -2.57858   12.41157
       H   -16.58706   -1.12522    5.66908
       O   -17.00825   -1.84907    6.16171
      H1   -17.50793   -2.38499    5.52825
       H   -19.54735   -6.40969    9.36948
       O   -18.87138   -5.92796    8.88048
      H1   -18.79388   -5.05820    9.22925
       H   -12.33685   -6.81837    9.86758
       O   -11.98107   -7.22191   10.66020
      H1   -11.29330   -6.63217   10.93380
       H   -19.39700   -0.70817   11.15505
       O   -18.84202   -1.46217   11.44120
      H1   -19.00677   -1.61352   12.43561
       H   -15.36972   -9.95460    7.42469
       O   -15.29539  -10.68225    6.79342
      H1   -14.32291  -10.62886    6.53297
       H   -15.14100   -6.62912    5.16201
       O   -15.97596   -6.77678    4.64887
      H1   -15.55068   -6.95952    3.79708
       H   -13.46509   -5.88707    7.28520
       O   -14.05311   -5.50261    6.63563
      H1   -14.63585   -4.84555    7.12001
       H   -17.78250   -6.69982    4.89450
       O   -18.71996   -6.43506    5.05670
      H1   -19.17350   -6.61604    4.27501
       H   -15.86326   -2.95808    7.15516
       O   -15.52835   -3.47900    7.86920
      H1   -16.25571   -3.74295    8.41691
       H   -13.21169   -4.85110   14.93828
       O   -13.02345   -4.37307   14.09699
      H1   -13.92715   -4.19648   13.84930
       H   -11.61785   -3.36949    9.72197
       O   -12.12917   -4.08662    9.26259
      H1   -12.09608   -3.89021    8.32930
       H   -15.14933   -9.64618   13.51877
       O   -15.02565   -8.92558   14.12168
      H1   -14.50798   -8.24942   13.62140

