114
frame 3 | Written by MDAnalysis XYZWriter (release 2.4.3)
       H    -5.04744    2.77207   -2.31479
       O    -4.49627    2.60335   -3.11096
      H1    -5.29594    2.52689   -3.69816
       H     1.75969   10.24008   -1.31326
       O     1.77450    9.39903   -1.73551
      H1     2.50575    8.96709   -1.25795
       H    -2.75019    5.03367   -0.11924
       O    -2.39559    4.30038   -0.68066
      H1    -2.24953    3.60581   -0.02360
       H     0.69831    3.98704    3.43229
       O     0.85654    4.92936    3.50549
      H1     1.33302    5.29476    2.70519
       H     0.62686    9.25010   -3.88713
       O     1.17260    8.72277   -4.49935
      H1     0.93246    9.02820   -5.37023
       H    -0.78229    4.48362   -8.95504
       O    -1.29660    5.06197   -8.34517
      H1    -1.35870    5.79081   -8.98295
       H    -3.67582    8.81142   -1.03518
       O    -4.24195    8.51382   -0.31990
      H1    -5.00151    8.11314   -0.80850
       H     1.54810    2.31908    1.48873
       O     2.35756    2.33052    0.92406
      H1     2.28436    1.44684    0.49433
       H    -2.85656    7.44146   -5.70445
       O    -2.58204    8.36752   -5.49033
      H1    -3.25252    8.84778   -6.00217
       H    -4.34768    9.07437   -4.12353
       O    -4.82455    9.83029   -3.77139
      H1    -5.77245    9.63371   -3.76386
       H     3.69392    5.40188   -5.47297
       O     4.20214    6.23435   -5.41021
      H1     3.92486    6.66356   -6.25459
       H    -5.02893    5.86976   -3.92650
       O    -5.26091    5.42548   -3.06875
      H1    -4.73282    4.65374   -3.09150
       H    -3.69698    6.90446    0.58579
       O    -3.52038    6.05636    0.98529
      H1    -2.82984    6.22717    1.63130
       H     1.32083    6.99589    1.27093
       O     2.00102    6.35709    1.55734
      H1     2.63850    6.88257    2.02336
       H    -0.42602    5.80131   -2.66602
       O    -0.49608    4.83343   -2.51712
      H1    -1.21765    4.75149   -1.90244
       H     3.86756    3.58171   -4.02293
       O     3.28205    3.69565   -4.78073
      H1     2.36302    3.77995   -4.37382
       H    -0.26321    6.21172   -7.00957
       O     0.49655    6.78396   -6.79199
      H1     0.58510    6.80610   -5.82011
       H     1.36201    4.42407   -1.73756
       O     2.04062    3.72454   -1.74146
      H1     1.90193    3.41380   -0.83678
       H    -2.16768   10.48471   -1.50344
       O    -2.42420    9.81264   -2.25247
      H1    -3.28272   10.00311   -2.64806
       H     3.15401    6.77447   -0.13515
       O     3.64522    7.57653   -0.49943
      H1     3.70480    7.35160   -1.41332
       H    -1.53773   -0.50482   -4.37308
       O    -1.60181    0.46748   -4.61459
      H1    -0.72226    0.83360   -4.42109
       H    -0.67452    0.98327   -1.38485
       O     0.31250    0.90980   -1.40101
      H1     0.54865    1.36411   -2.24922
       H    -1.09330    5.71400    2.96656
       O    -1.84353    6.34316    3.11177
      H1    -2.53963    5.76188    3.54611
       H     2.87282   11.61355   -4.97425
       O     3.12838   11.15671   -4.21238
      H1     2.30036   10.71242   -3.94156
       H    -4.58661    5.57577   -6.04949
       O    -3.85253    5.93549   -5.60639
      H1    -3.25725    5.28627   -5.18078
       H    -1.28499   10.24564   -6.44375
       O    -0.76591    9.62416   -6.98219
      H1    -1.13403    8.81717   -6.60861
       H     1.20968    3.02349   -3.34965
       O     0.93054    2.30567   -3.98421
      H1     1.68397    1.72383   -4.07187
       H     3.38904    6.81606   -3.98842
       O     2.79547    7.14533   -3.31057
      H1     2.04871    7.66418   -3.71161
       H    -0.37856    8.92819    1.33375
       O     0.05496    8.17333    0.94077
      H1    -0.40602    8.12642    0.09835
       H     3.94478    4.37487   -2.13532
       O     4.92326    4.23484   -2.31130
      H1     5.22630    5.16009   -2.29795
       H    -2.08203    1.68422    0.19794
       O    -1.82116    2.12982    1.02521
      H1    -2.56546    2.27989    1.66868
       H    -5.80530    4.56081   -0.62029
       O    -5.24834    3.72966   -0.58049
      H1    -4.32905    4.04083   -0.53129
       H    -0.00628   12.06429   -2.32491
       O    -0.39034   11.78637   -3.15639
      H1    -1.04276   11.11966   -2.79554
       H    -7.20631    7.55569   -1.83998
       O    -6.31514    7.83358   -2.06441
      H1    -5.95106    7.00225   -2.38942
       H     3.27888    4.48638   -7.74196
       O     2.85871    5.28154   -8.11320
      H1     1.91483    5.31993   -7.86479
       H    -3.07156    3.40561   -3.95538
       O    -2.47251    4.04556   -4.39756
      H1    -1.74943    4.23920   -3.76473
       H     0.28781    8.13945   -1.91096
       O    -0.52053    7.73496   -2.33763
      H1    -1.09503    8.51597   -2.43735
       H    -2.95013    0.36285   -1.13562
       O    -2.68524    1.27253   -1.22479
      H1    -3.10415    1.76679   -1.91545

