114
frame 4 | Written by MDAnalysis XYZWriter (release 2.4.3)
       H     5.45933   -1.72345    3.01804
       O     5.40856   -0.91055    2.55936
      H1     6.24373   -0.41774    2.68334
       H     3.89708   -8.04844    3.62540
       O     4.59950   -7.99807    2.94622
      H1     4.20516   -7.64593    2.09242
       H     6.03964   -9.85123    8.94703
       O     5.93779  -10.33195    9.79591
      H1     6.86513  -10.25541   10.11966
       H     0.84445   -7.34310    1.87570
       O     1.11366   -7.68130    0.96733
      H1     1.98524   -7.23681    0.81566
       H     9.30972   -9.24491    6.74154
       O     8.41966   -9.45631    6.32695
      H1     8.54681  -10.05664    5.52442
       H     0.39300  -12.15846    5.88886
       O     0.33442  -11.29393    6.33127
      H1     1.07266  -11.18100    6.99168
       H     6.09718   -7.04857    4.19119
       O     6.41913   -6.14689    4.32201
      H1     5.60684   -5.53450    4.21555
       H     7.77295   -5.93050    6.05453
       O     7.92330   -6.18000    6.97708
      H1     8.43322   -6.98474    6.83334
       H    -0.37398   -6.03352    5.40015
       O     0.21422   -6.65461    5.81008
      H1    -0.37649   -7.13244    6.42919
       H     1.97904   -5.66325    3.73452
       O     2.24606   -6.52658    4.13055
      H1     1.45091   -6.79472    4.68278
       H     5.15617   -3.10117    9.03910
       O     5.59504   -3.37778    9.85435
      H1     4.97988   -4.00259   10.26010
       H     3.71875   -2.46765    6.71391
       O     4.18779   -3.33175    6.93701
      H1     3.51788   -4.03297    7.04634
       H     6.76197   -5.41303    2.56188
       O     7.43467   -5.09358    1.89448
      H1     6.94078   -4.47387    1.32332
       H     5.15222   -9.52880    2.50602
       O     5.56979  -10.28715    2.06666
      H1     6.52539  -10.07079    2.17373
       H     1.88994  -11.05279    1.37477
       O     2.19361  -10.45088    2.05000
      H1     1.62708   -9.74190    1.81485
       H     4.50614   -3.47649    5.03128
       O     4.94903   -3.39605    4.17255
      H1     4.28930   -3.64499    3.50910
       H     2.05870   -3.91887    2.19391
       O     1.87416   -4.01242    3.09962
      H1     1.15298   -3.43466    3.31630
       H     0.77711   -3.66463    8.61286
       O     0.13185   -3.20301    9.20284
      H1    -0.18923   -2.53182    8.59755
       H     5.11532  -11.79012    8.69319
       O     4.23588  -12.18834    8.58390
      H1     4.51704  -12.88586    7.99455
       H     7.26595   -4.21678    9.44359
       O     8.20396   -4.45935    9.32678
      H1     8.28275   -5.13201    8.68429
       H     5.49300   -8.40112    7.05778
       O     5.84428   -9.32419    7.06470
      H1     6.83164   -9.28655    7.03770
       H     8.31129   -6.17532   12.24131
       O     7.60582   -5.56347   11.83860
      H1     7.88209   -5.45276   10.90056
       H     8.79510  -10.67298    3.28801
       O     9.31276  -11.12809    4.02286
      H1    10.14447  -10.64627    4.06605
       H     0.66602   -9.86217    9.20117
       O    -0.24155  -10.17535    8.95728
      H1    -0.11370  -10.74695    8.24088
       H     3.67340   -6.32552    9.94888
       O     2.78235   -6.44401    9.68928
      H1     2.28705   -5.86264   10.34043
       H     5.53120  -10.71889    5.99212
       O     5.28481  -11.28759    5.23674
      H1     6.05689  -11.37276    4.65888
       H     8.42554   -5.42724    4.02343
       O     9.23010   -5.16858    4.46003
      H1     9.65712   -5.97885    4.48911
       H     5.95608   -6.35687    7.08367
       O     5.05784   -6.69960    7.07292
      H1     4.92182   -6.72795    6.15938
       H     4.40475   -4.75607   12.35441
       O     4.83224   -5.29851   11.65647
      H1     5.74865   -5.35062   11.97592
       H     2.31520   -9.84513   10.68791
       O     1.90673   -9.11246   10.24532
      H1     2.64320   -8.75498    9.69699
       H     2.97770   -0.29980    6.09567
       O     2.80212   -0.93421    6.85046
      H1     3.26256   -0.40598    7.58323
       H     7.79482   -2.36779    6.01891
       O     7.23825   -1.78670    5.44019
      H1     6.57442   -2.34877    5.03456
       H     0.17671   -9.90976    4.75695
       O    -0.36365   -9.35515    4.21676
      H1    -0.66675   -8.63206    4.78835
       H     3.27212  -10.79505    7.63655
       O     2.49720  -10.22619    7.45109
      H1     2.66604  -10.02861    6.50281
       H     3.06292  -10.28832    3.77819
       O     3.21980   -9.81729    4.60798
      H1     4.09351  -10.21244    4.91261
       H     4.59914   -6.71244    0.04350
       O     3.87076   -6.53247    0.69767
      H1     3.75867   -5.58396    0.67075
       H     1.54158   -5.27724    6.57068
       O     1.97267   -4.90646    7.35350
      H1     2.09908   -5.71902    7.88485
       H     8.44085   -3.72769    7.64847
       O     8.95873   -3.35768    6.90448
      H1     8.82797   -3.92403    6.16333

