114
frame 5 | Written by MDAnalysis XYZWriter (release 2.4.3)
       H     3.31077   13.09949   15.66426
       O     3.83988   12.74542   16.36396
      H1     4.60253   12.40018   15.88454
       H     3.94124   11.00895   17.00352
       O     4.01422   10.04896   17.18937
      H1     4.83514    9.94071   17.70116
       H     5.25317   11.90856   14.21829
       O     5.95168   12.00423   14.85240
      H1     6.39164   11.12500   14.90287
       H     4.02713   14.16506   17.46286
       O     3.84475   15.02239   17.80731
      H1     4.67290   15.38167   18.16099
       H     5.33774    5.13125   18.45443
       O     5.11058    6.04866   18.73893
      H1     4.63775    6.20782   17.92894
       H     3.30691   12.82462   13.32531
       O     3.83714   12.05112   13.09549
      H1     4.56095   12.31063   12.56886
       H     8.97405   11.81956   17.93617
       O     8.47766   11.04062   18.31960
      H1     8.49885   10.44447   17.56767
       H     3.16719    6.03524   16.40211
       O     3.89966    6.69312   16.40454
      H1     3.44586    7.50558   16.33917
       H     1.50322   10.00599   20.28320
       O     0.95237   10.55607   19.67583
      H1     0.67378    9.97297   18.95080
       H     5.15951    3.93490   14.88989
       O     5.15652    2.99567   14.59934
      H1     4.44309    2.65492   15.12624
       H     2.01745   15.38766   17.71196
       O     1.12874   15.69484   17.63049
      H1     1.03856   16.35737   16.95600
       H     9.48762    8.47609   16.03216
       O     8.95405    8.91120   15.36173
      H1     8.69026    8.15310   14.79153
       H     5.01451    6.07083   15.20831
       O     5.61659    5.64461   14.59649
      H1     5.16260    5.74801   13.77115
       H    -1.28887   10.96190   12.37748
       O    -1.60792   10.07875   12.52766
      H1    -1.35976    9.76518   13.39654
       H     9.05048   13.14075   14.32891
       O     8.23991   13.31228   13.75510
      H1     7.53830   12.85813   14.27661
       H     2.02422    9.33378   14.78228
       O     2.04636    8.95836   15.70107
      H1     2.80303    9.36594   16.13347
       H    -0.32833   12.86775   18.17639
       O    -0.88110   12.31821   17.56616
      H1    -1.72127   12.39283   18.01472
       H    -0.53389   13.34561   15.88768
       O    -0.36500   13.54451   14.96441
      H1    -0.72570   14.45589   14.81692
       H     8.89567    5.97126   14.18239
       O     8.12401    6.58552   14.10249
      H1     7.30174    6.08905   14.25428
       H    -0.46268    6.24993   19.53589
       O    -0.29869    6.21101   18.58699
      H1     0.49291    6.80884   18.49629
       H    -1.62077    5.54764   15.46456
       O    -2.04191    5.95600   16.22824
      H1    -1.31474    6.11478   16.88526
       H     1.31174    9.42514   10.28806
       O     1.55034   10.30759   10.64431
      H1     1.62074   10.15031   11.60181
       H     0.70763    5.70842   14.81872
       O     1.09554    6.54960   14.42822
      H1     1.35584    7.08647   15.11143
       H     0.57959   12.10808   10.89511
       O    -0.05322   12.69518   11.35850
      H1    -0.57901   12.96606   10.59804
       H     1.31495    4.67025   17.42864
       O     1.84732    4.82182   16.63106
      H1     2.32469    4.01451   16.44567
       H    -2.18617   10.19803   15.13970
       O    -1.99588    9.24852   15.06293
      H1    -1.34206    9.02726   15.78737
       H     2.88312    4.69445   12.32043
       O     3.21238    5.25964   12.97120
      H1     2.39306    5.39094   13.52198
       H    -1.41284   10.17257   19.65001
       O    -2.33872   10.27259   19.57161
      H1    -2.73607    9.41193   19.37854
       H     3.33286    6.78679   12.24223
       O     3.48220    7.68396   11.91327
      H1     4.38460    7.94536   12.27123
       H    -2.22077   12.71412   15.51616
       O    -2.83598   12.03051   15.31648
      H1    -3.44413   12.04696   16.06418
       H     0.78063    9.51795   16.66823
       O    -0.02676    9.43747   17.25214
      H1    -0.32794   10.34344   17.42873
       H     6.78604    6.82978   19.17859
       O     7.74403    7.09010   19.24738
      H1     8.17073    6.25138   19.09622
       H     6.87766    8.69881   18.81763
       O     6.27000    9.40273   18.46953
      H1     6.81292   10.23671   18.49766
       H    -0.02722    7.08277   13.16744
       O    -0.55303    7.25712   12.35480
      H1    -0.89202    8.15018   12.35404
       H     6.30700    8.69818   13.42975
       O     5.78195    8.74636   12.64817
      H1     6.28228    9.18838   11.93822
       H     2.52529    8.86246   12.79003
       O     2.21464    9.75643   13.15562
      H1     2.92479   10.44117   13.12795
       H     2.18327   14.96961   14.30257
       O     2.34204   14.06608   14.43993
      H1     1.48820   13.69649   14.70043
       H     7.20816    9.17915   15.81407
       O     6.31688    9.32635   15.47367
      H1     5.76847    9.47448   16.23160

