114
frame 4 | Written by MDAnalysis XYZWriter (release 2.4.3)
       H    13.47100  -13.15555    4.30671
       O    12.63301  -13.07572    3.79538
      H1    12.01540  -13.79670    4.03394
       H    17.51167  -12.32754   -5.07912
       O    16.76517  -11.94349   -5.59270
      H1    16.93239  -10.99710   -5.64604
       H    20.21691  -18.10822   -2.78943
       O    19.63501  -17.73837   -3.43601
      H1    18.87432  -17.87327   -2.89736
       H    16.63800  -14.74684    1.07494
       O    16.78094  -13.80812    0.87249
      H1    16.66405  -13.77521   -0.12643
       H    10.65001  -14.60159    2.61439
       O    10.88685  -15.12564    3.38266
      H1    11.54241  -15.68468    3.01287
       H    17.97495  -12.34414    0.31728
       O    18.35888  -11.61871   -0.22154
      H1    19.21668  -11.50536    0.25003
       H    12.87439  -11.16621    1.03607
       O    12.37621  -10.57299    0.47118
      H1    11.95875  -11.16075   -0.22443
       H    12.11477  -14.30521   -1.76793
       O    12.21891  -14.85861   -2.57193
      H1    12.67430  -15.62944   -2.27162
       H    17.15397  -10.53644    0.72335
       O    16.85254   -9.86269    1.39757
      H1    15.88486   -9.66681    1.44065
       H    13.85161  -12.53424    2.44933
       O    14.22376  -12.57893    1.55529
      H1    15.09487  -12.98610    1.61607
       H    17.70396  -12.73804    3.11114
       O    17.70500  -11.91556    3.60612
      H1    17.55085  -11.16423    3.02346
       H    15.41672  -12.97783    5.62832
       O    15.29973  -13.08075    4.67095
      H1    16.04998  -12.58202    4.29852
       H    16.14742  -11.46561   -3.78029
       O    15.56827  -11.77219   -3.02219
      H1    15.40135  -11.04625   -2.39722
       H    13.65744   -9.35655    3.16885
       O    14.42477   -9.11679    2.59825
      H1    15.06399   -8.58036    3.12767
       H    19.30637  -19.10547    2.40246
       O    19.46844  -19.44255    3.29481
      H1    18.62504  -19.82484    3.58630
       H    12.28937  -11.37329    4.00405
       O    12.10351  -10.41046    4.05307
      H1    12.38405  -10.19842    4.94911
       H    13.65751  -17.85975   -2.47398
       O    13.82590  -17.15110   -1.82873
      H1    13.73932  -17.52070   -0.92007
       H    13.06468  -13.80314    0.52003
       O    12.12661  -13.94944    0.33035
      H1    11.84003  -14.86903    0.54151
       H    14.11208  -10.09968   -0.63622
       O    14.80764   -9.82921   -1.27209
      H1    15.08199   -8.90837   -1.05811
       H    16.49312  -14.46408   -2.42583
       O    16.71000  -13.80910   -1.74954
      H1    16.28321  -12.98829   -2.06388
       H    12.41972   -9.55360   -3.87922
       O    13.18637   -9.08848   -3.57637
      H1    13.83175   -9.73153   -3.22297
       H    14.69390  -12.33484    8.06424
       O    15.24733  -12.36365    7.26676
      H1    16.16332  -12.22495    7.49573
       H    18.61518   -8.68731    1.62680
       O    19.29900   -8.01294    1.89372
      H1    19.87957   -7.85377    1.09737
       H    16.54301  -15.97843    5.28062
       O    15.91266  -15.81694    4.62415
      H1    15.55875  -14.89212    4.75199
       H    13.01842  -13.95300   -3.78214
       O    13.48002  -13.27356   -4.31159
      H1    14.42537  -13.18746   -4.06275
       H    11.17170  -16.83863   -0.11691
       O    11.01655  -16.30479    0.68346
      H1    10.06460  -16.07570    0.68318
       H    12.62231  -18.97623    0.54473
       O    13.38847  -18.37337    0.53485
      H1    14.17770  -18.95693    0.77279
       H    17.58083  -16.83911    1.47411
       O    16.68351  -16.45844    1.78265
      H1    16.73727  -16.41346    2.76563
       H    19.16173  -13.14066   -3.87013
       O    18.49486  -12.58433   -3.51733
      H1    18.03872  -13.13325   -2.87785
       H    18.05493  -16.57478    6.95451
       O    18.83692  -16.24960    6.44047
      H1    19.33208  -17.13519    6.31445
       H    15.83105  -18.60645    1.63905
       O    15.49231  -19.36999    2.04369
      H1    16.01504  -20.08734    1.74476
       H    12.97670  -18.09216    2.34840
       O    13.07475  -17.82708    3.25442
      H1    13.74852  -17.12141    3.29931
       H    19.69316  -17.10424    0.57210
       O    19.06177  -17.76357    0.81768
      H1    18.64039  -18.03951   -0.01087
       H    16.30624   -6.79087   -0.44839
       O    15.82658   -7.54160   -0.16471
      H1    16.42383   -7.98350    0.44013
       H     9.75758  -12.28365    2.13446
       O     9.76183  -13.07535    1.54121
      H1    10.66283  -13.03913    1.14944
       H    15.59978  -16.18242   -4.19957
       O    15.92151  -16.05982   -3.27479
      H1    15.21945  -16.43918   -2.74180
       H    16.81971  -17.49380   -1.63608
       O    17.56640  -18.14507   -1.69393
      H1    17.21414  -18.93094   -2.13176
       H    18.96721  -10.81012   -3.29220
       O    18.76602   -9.93589   -2.85424
      H1    18.17786  -10.21667   -2.09903

