114
frame 4 | Written by MDAnalysis XYZWriter (release 2.4.3)
       H     2.90192   13.96199   16.63245
       O     3.50810   13.37128   17.10289
      H1     4.37033   13.40825   16.66195
       H     2.59703   11.78123   17.58257
       O     2.46912   10.91462   17.98281
      H1     3.09850   10.83168   18.70512
       H    -5.14764   12.60283   15.02320
       O    -5.22347   12.93749   15.92034
      H1    -5.60484   13.84225   16.00492
       H    -7.23431   11.00942   14.49633
       O    -7.67279   11.66876   15.07478
      H1    -7.02185   12.22309   15.53734
       H    -8.70511   15.38885   14.13181
       O    -8.14335   14.70673   13.69572
      H1    -8.78317   14.13030   13.30691
       H     5.22188   15.96380   18.62889
       O     4.35548   16.39416   18.72715
      H1     4.42687   17.01896   19.46136
       H     3.68210   12.74287   13.88975
       O     4.21673   12.10420   13.47252
      H1     4.21582   12.36699   12.56221
       H    -6.56383   17.73564   11.44049
       O    -7.23488   17.13399   11.73848
      H1    -6.77965   16.26361   11.61960
       H    -7.61958   16.54739   19.46073
       O    -6.76689   16.45216   18.98461
      H1    -6.84950   17.01447   18.22511
       H    -6.46996   14.79667   12.78397
       O    -5.81337   14.81999   12.11336
      H1    -5.81266   14.00493   11.55029
       H     4.18707   17.56823   12.84590
       O     3.28014   17.32971   13.19620
      H1     2.81953   17.00166   12.39375
       H    -3.54906   13.23172   19.24083
       O    -2.61508   12.95369   19.07638
      H1    -2.83606   11.97195   19.24584
       H     2.16792   15.91113   17.85225
       O     1.28038   15.57028   17.78098
      H1     0.76536   16.26731   17.29408
       H    -3.28234   11.64402   14.19226
       O    -3.97845   11.46441   13.59055
      H1    -3.61295   11.43919   12.70463
       H    -8.98943   18.63075   16.81803
       O    -9.78062   19.18922   16.84243
      H1    -9.41777   20.03851   16.98463
       H    -3.95658   18.96238   13.85577
       O    -4.86156   18.62473   13.84921
      H1    -4.91432   18.14527   13.01391
       H     2.40176    9.23841   14.97266
       O     2.19054    9.11535   15.92559
      H1     2.48472    9.82864   16.49574
       H     0.28155   18.52378   10.35225
       O     0.59332   17.74878    9.86523
      H1    -0.21804   17.27174    9.66275
       H     0.07169   13.46826   18.17327
       O    -0.18399   12.91700   17.38680
      H1    -1.17937   12.86190   17.46416
       H    -0.44278   16.80992   15.31584
       O    -0.16008   17.09914   16.17738
      H1     0.17159   17.98655   16.20772
       H    -0.10371   13.65521   15.42520
       O    -0.49920   13.45176   14.57325
      H1    -0.86816   14.32432   14.27904
       H     1.09947   16.50616   10.98861
       O     1.49025   15.88784   11.65857
      H1     0.87891   15.16655   11.80986
       H     4.18849   17.35777   15.49461
       O     4.25786   17.83491   16.31899
      H1     4.21403   17.23120   17.07533
       H    -6.76516   15.20434   14.84655
       O    -6.28410   15.37155   15.69095
      H1    -5.37125   15.57433   15.45535
       H    -2.25870   16.83493   11.46054
       O    -1.83040   17.69495   11.60045
      H1    -2.17407   18.29529   10.87874
       H    -1.56800   16.68995   17.51999
       O    -2.46013   16.41632   17.72219
      H1    -2.37536   15.83857   18.48380
       H    -3.27796   19.33104   19.30741
       O    -3.78367   18.56778   18.91144
      H1    -3.21155   17.90598   18.56308
       H     0.45250   10.04475   12.43058
       O    -0.16597   10.74833   12.32953
      H1     0.05417   11.35439   13.00974
       H    -0.97473   13.53380   11.90518
       O    -0.12211   13.67644   11.45149
      H1    -0.23709   13.67296   10.47433
       H    -2.44071   10.35329   15.72934
       O    -2.49807    9.38212   15.73211
      H1    -1.79944    9.10061   16.29782
       H    -3.91484   15.37385   11.16261
       O    -3.21889   15.45031   10.45069
      H1    -3.77576   15.71870    9.68000
       H    -3.85234   17.48479   15.11239
       O    -3.58045   16.59467   15.30120
      H1    -3.19629   16.56658   16.17334
       H    -1.74888   12.71799   15.49025
       O    -2.46869   12.21299   15.87570
      H1    -3.12713   12.80436   16.20579
       H    -7.45990   17.14989   16.38988
       O    -7.35283   17.97808   16.93483
      H1    -6.67491   18.46088   16.52684
       H     0.62188    9.49679   17.26790
       O    -0.19222    9.90791   17.59443
      H1    -0.06620   10.91485   17.61225
       H    -2.28690   16.31191   14.16448
       O    -1.44642   16.02939   13.84470
      H1    -1.30300   16.64358   13.16882
       H     2.87098   14.64525   13.73817
       O     2.53763   14.13120   14.45285
      H1     1.72005   13.76115   14.06069
       H    -6.67861   10.71520   18.38713
       O    -5.81334   10.57238   17.91360
      H1    -5.65525   11.37848   17.47219

