114
frame 2 | Written by MDAnalysis XYZWriter (release 2.4.3)
       H     6.20978   -8.21611  -13.16509
       O     5.97101   -9.04377  -12.65540
      H1     6.83872   -9.42358  -12.58396
       H     6.95665   -6.08392  -14.42445
       O     7.09238   -6.66754  -13.64538
      H1     7.82234   -6.25762  -13.15949
       H     7.71106   -8.25082   -9.94050
       O     6.89816   -8.54059   -9.44071
      H1     6.12857   -8.14423   -9.93012
       H     0.68796  -10.84569  -11.63590
       O     0.87721  -10.39506  -12.49987
      H1     0.69729  -10.99691  -13.19197
       H     1.45982   -5.92910  -12.19570
       O     1.45185   -5.11547  -12.74642
      H1     0.74262   -5.18800  -13.37138
       H     0.73106   -3.35170   -9.54562
       O     0.46529   -4.06561   -8.95552
      H1     0.40779   -4.81414   -9.52805
       H     0.46073   -7.30224  -11.11112
       O    -0.26014   -6.75830  -10.63341
      H1    -0.64879   -6.31623  -11.40532
       H     3.10601  -10.05348   -8.64440
       O     3.39813   -9.14929   -8.52508
      H1     3.48033   -8.72614   -9.38530
       H     1.45674   -8.65193  -12.31252
       O     1.76162   -7.83109  -11.85603
      H1     2.66663   -7.96956  -11.54762
       H     5.67726   -4.96220  -10.61742
       O     4.73324   -5.16477  -10.47558
      H1     4.43454   -4.54851   -9.82150
       H    -2.38518   -2.74049  -13.42994
       O    -2.03400   -3.07258  -14.31069
      H1    -1.58888   -3.96430  -14.15889
       H    -3.95033   -8.24016  -11.80749
       O    -4.43465   -8.55037  -11.08482
      H1    -3.99050   -7.96002  -10.43021
       H     1.91449  -12.42335  -17.05237
       O     2.48626  -11.81324  -17.51517
      H1     2.76127  -11.20068  -16.82862
       H    -1.54941   -3.47712   -9.03933
       O    -2.35579   -3.07335   -9.21845
      H1    -2.75847   -2.88604   -8.35466
       H     2.73411  -12.06212   -8.07141
       O     2.75186  -11.77373   -8.96789
      H1     1.79290  -11.52961   -8.99736
       H     4.14133   -3.01421  -13.84904
       O     4.93060   -3.07565  -14.37704
      H1     5.24232   -2.26333  -14.75647
       H     2.79315   -2.26794  -12.10234
       O     2.68986   -2.81285  -12.89638
      H1     2.16907   -3.59935  -12.62597
       H     2.53084   -8.46825   -7.02822
       O     1.79874   -8.47317   -6.38967
      H1     1.87250   -9.32940   -5.91954
       H     0.01061  -13.35355  -11.98963
       O    -0.00688  -13.18042  -12.93023
      H1    -0.92192  -12.72932  -13.12846
       H    -0.52972   -9.07339  -14.00431
       O    -0.84986   -8.31090  -13.52964
      H1    -0.95590   -8.68949  -12.64102
       H    -0.92516  -11.06019  -10.31278
       O     0.01470  -11.29048  -10.10167
      H1     0.11192  -12.22619  -10.13523
       H    -3.82069   -7.46169  -14.41091
       O    -3.43649   -8.32775  -14.34363
      H1    -2.52450   -8.10192  -14.02551
       H    -0.87200  -10.83516   -8.01544
       O    -1.70948  -10.39305   -7.76376
      H1    -1.73107  -10.16668   -6.81348
       H     1.12527   -2.36044  -13.77510
       O     0.44609   -1.84898  -14.25928
      H1    -0.34211   -2.47630  -14.21135
       H     5.39123  -10.16634  -13.88737
       O     5.09933  -10.65463  -14.68023
      H1     4.34847  -11.19581  -14.53792
       H    -3.30954  -10.04662  -11.13417
       O    -2.52003  -10.71253  -11.11906
      H1    -2.96253  -11.55047  -10.87175
       H    -3.50144   -5.37660  -11.55344
       O    -2.90391   -5.77342  -12.21196
      H1    -3.24610   -5.44598  -13.08967
       H     2.80288   -8.65758  -15.96148
       O     3.39450   -9.41732  -16.30732
      H1     3.98575   -9.69665  -15.59816
       H     2.37438   -6.27891  -13.96313
       O     2.47711   -6.71057  -14.79395
      H1     2.94366   -6.05439  -15.33920
       H     1.86354  -13.49917  -10.37705
       O     1.00123  -13.93490  -10.42814
      H1     0.70006  -14.29720   -9.56330
       H     0.28743   -7.70271   -7.08391
       O    -0.55229   -7.23757   -6.99293
      H1    -1.07103   -7.32876   -7.81487
       H    -3.04078  -12.08973  -14.17176
       O    -2.31963  -11.72932  -13.64582
      H1    -2.63672  -11.39956  -12.77924
       H    -1.62828   -7.56257   -9.93058
       O    -2.28588   -7.71848   -9.20002
      H1    -2.06172   -8.63260   -8.91892
       H    -0.49474   -6.43978  -14.18362
       O    -0.66312   -5.52136  -14.34056
      H1    -0.42924   -5.39419  -15.28695
       H     4.58536   -6.84462  -10.88362
       O     4.36773   -7.79319  -10.78006
      H1     4.92742   -8.30582  -11.45180
       H    -1.36337  -10.82692  -14.79963
       O    -0.49644  -10.62120  -15.19114
      H1    -0.56511  -10.93301  -16.08983
       H     2.95601  -12.94642  -13.46057
       O     3.10609  -12.63319  -14.32583
      H1     2.20595  -12.75189  -14.66624
       H     3.78125   -3.00522   -8.32053
       O     3.58223   -3.97888   -8.32079
      H1     2.65877   -4.16026   -8.19272

