114
frame 5 | Written by MDAnalysis XYZWriter (release 2.4.3)
       H     8.84468   -1.81453   -1.17349
       O     8.45186   -2.24622   -1.93012
      H1     9.05374   -3.03673   -2.01507
       H     6.21622   -1.64950   -3.42190
       O     5.79018   -2.27255   -4.01856
      H1     5.71965   -3.07067   -3.44767
       H    11.75171   -2.23814   -0.19819
       O    11.84560   -2.27571   -1.20366
      H1    12.75543   -2.67070   -1.39786
       H    10.86671   -7.14072  -10.51920
       O    11.35841   -6.78855   -9.77632
      H1    11.96832   -7.50564   -9.56814
       H     8.05995   -9.74020   -9.76126
       O     8.45610   -9.68572   -8.86949
      H1     8.24877   -8.77418   -8.80766
       H    14.05666   -2.70505   -2.76987
       O    14.15849   -3.36814   -2.06407
      H1    13.67204   -4.13556   -2.44462
       H    12.54529    0.05043   -7.50128
       O    13.05529   -0.68163   -7.87821
      H1    12.91746   -0.56172   -8.87986
       H     7.11686   -5.37088   -7.46108
       O     7.05103   -4.48566   -7.06229
      H1     6.16385   -4.04810   -7.03313
       H    11.21506   -3.14123  -10.60088
       O    11.51931   -3.93258  -11.08982
      H1    11.53004   -3.54067  -11.93079
       H    12.15273  -11.28958   -4.14253
       O    11.63817  -10.51139   -4.17888
      H1    11.10486  -10.70029   -4.94758
       H    11.06022   -7.25673   -0.30317
       O    10.16562   -7.17006   -0.60620
      H1     9.92764   -7.75029   -1.35559
       H     9.33701   -6.80965   -4.68834
       O    10.20319   -7.21990   -4.66328
      H1    10.27382   -7.52080   -5.56047
       H     7.52565   -4.06037   -8.85915
       O     7.46621   -4.24231   -9.80907
      H1     7.49773   -3.35802  -10.19317
       H    12.36094   -8.72243   -4.12781
       O    13.03179   -8.10344   -3.87651
      H1    13.60971   -8.64316   -3.31452
       H    13.31307   -9.36712   -8.82120
       O    13.24012   -8.38113   -8.75535
      H1    13.83803   -8.18388   -7.99733
       H     8.00751   -2.59544   -5.58883
       O     8.91600   -2.30447   -5.77328
      H1     9.06365   -1.44804   -5.20385
       H    14.09675   -4.54919   -5.44392
       O    14.63789   -5.07188   -4.87078
      H1    14.02086   -5.57837   -4.32068
       H    13.99926   -7.94710   -5.63921
       O    14.63901   -7.78553   -6.34568
      H1    14.83054   -6.84318   -6.19015
       H     8.78848   -7.20792   -8.18833
       O     7.80931   -6.97036   -8.05275
      H1     7.54998   -6.47114   -8.82640
       H    12.37458   -4.43290   -8.65122
       O    13.28405   -4.15907   -8.58087
      H1    13.44405   -3.82584   -7.70030
       H     5.11719   -5.14685   -2.97911
       O     5.83955   -4.55752   -2.74075
      H1     6.20809   -4.98637   -1.99845
       H     9.78479   -5.35516   -1.37882
       O     9.74904   -4.66642   -2.04394
      H1    10.52280   -4.85302   -2.63269
       H    10.07991   -1.26386   -9.80861
       O    10.49636   -1.38724  -10.67609
      H1     9.74803   -1.55452  -11.25508
       H     6.58405  -10.27315   -5.74807
       O     7.46635  -10.27680   -6.21859
      H1     7.49282   -9.61471   -6.96703
       H     8.76040   -0.42191   -8.16202
       O     8.99536   -1.32431   -8.41622
      H1     9.05412   -1.77221   -7.55786
       H    12.31855   -3.15306   -6.14934
       O    13.21392   -2.79316   -6.21230
      H1    13.11446   -2.06881   -6.85889
       H    11.49548   -6.05005   -3.36216
       O    11.74144   -5.11940   -3.59308
      H1    11.24539   -4.88490   -4.36770
       H    13.07677   -0.83404   -3.87909
       O    13.87680   -1.38331   -4.02330
      H1    13.62780   -1.92392   -4.78878
       H     4.39241   -3.12295   -6.55999
       O     5.21083   -2.63070   -6.75896
      H1     5.50826   -2.42117   -5.88691
       H    10.67835   -7.47971   -8.30439
       O    10.21029   -8.08057   -7.65445
      H1     9.91244   -8.91025   -8.09653
       H     9.09269   -0.05181   -3.83202
       O     9.83629   -0.63338   -3.72508
      H1     9.36454   -1.23272   -3.07852
       H     9.81935   -3.75852   -5.99114
       O    10.63743   -4.32812   -6.06038
      H1    10.40414   -5.28182   -5.95505
       H    10.12585   -5.16174  -11.11291
       O     9.36963   -5.67791  -11.39616
      H1     8.66525   -5.28238  -10.80266
       H     6.04902   -7.15622   -4.27134
       O     5.40463   -7.59388   -3.69348
      H1     5.52721   -7.19659   -2.82175
       H     7.69121   -7.24739   -1.75983
       O     7.14447   -6.56401   -1.39288
      H1     6.52700   -6.91556   -0.72342
       H     7.53833   -5.47069   -5.47884
       O     7.87221   -5.98243   -4.76491
      H1     7.86031   -5.44125   -3.97441
       H    15.74672   -6.42209   -9.69844
       O    15.65586   -5.62942   -9.16328
      H1    14.70779   -5.36898   -9.22438
       H     9.10474   -9.35349   -2.11829
       O     8.76524   -8.46253   -2.50026
      H1     9.23581   -8.31591   -3.32347

