114
frame 8 | Written by MDAnalysis XYZWriter (release 2.4.3)
       H   -18.04379    1.93671   -5.66835
       O   -17.78323    2.56045   -6.38308
      H1   -17.03225    2.11857   -6.83251
       H   -18.15818   -0.04459   -9.24699
       O   -17.35194    0.35841   -9.61200
      H1   -16.78069    0.58911   -8.89128
       H   -18.83872   -3.67333  -12.67957
       O   -18.92797   -3.47864  -13.66364
      H1   -19.66036   -4.04093  -13.93043
       H   -17.94523   -0.16012  -14.42271
       O   -17.96091    0.15379  -13.48009
      H1   -17.07743   -0.04068  -13.11840
       H   -16.35379   -0.55308  -10.65278
       O   -15.68662   -0.91777  -11.30598
      H1   -16.05766   -1.63970  -11.88341
       H   -18.09186    3.19157   -9.72633
       O   -17.31501    2.89342  -10.28690
      H1   -17.18557    1.97830  -10.07048
       H   -13.84291   -1.65753  -16.49834
       O   -14.27579   -0.83576  -16.68734
      H1   -14.56162   -0.38693  -15.86979
       H   -16.26680   -6.50384  -13.98641
       O   -17.08105   -6.83992  -14.39138
      H1   -17.76329   -6.79546  -13.70998
       H   -17.10735   -3.44728  -13.46456
       O   -16.13573   -3.26513  -13.37400
      H1   -15.74490   -4.10411  -13.24175
       H   -16.82027    5.73100  -17.03382
       O   -16.74364    5.22286  -16.24127
      H1   -16.02834    5.66722  -15.78642
       H   -17.72367   -0.13296  -16.39309
       O   -17.91855   -0.95930  -15.93094
      H1   -17.11229   -1.50651  -16.16059
       H   -19.49017   -3.78593  -10.89158
       O   -18.59336   -3.53135  -10.98674
      H1   -18.04540   -4.01861  -10.30990
       H   -14.81182   -2.27706   -8.50681
       O   -14.82796   -2.83638   -9.25752
      H1   -15.06844   -2.40196  -10.08661
       H   -17.67556    2.23361  -16.51594
       O   -18.04245    1.57941  -17.18710
      H1   -17.45638    1.27169  -17.89249
       H   -14.81566    0.90461  -11.38260
       O   -14.54012    1.77867  -11.12247
      H1   -15.24995    2.18226  -10.67923
       H   -18.48604   -6.74482  -15.68421
       O   -19.17661   -6.62654  -16.34347
      H1   -19.18396   -7.45738  -16.84216
       H   -16.12292   -5.66821   -9.81660
       O   -16.54690   -4.96739   -9.31757
      H1   -15.82912   -4.29674   -9.23876
       H   -12.82738    1.99855  -10.19917
       O   -12.10445    1.83027   -9.62485
      H1   -11.78488    0.91650   -9.85670
       H   -14.21328   -1.66780  -12.40623
       O   -13.28558   -1.92930  -12.54043
      H1   -12.87848   -1.83147  -11.66957
       H   -11.55903    4.95670  -11.04073
       O   -11.37469    4.55127  -11.89622
      H1   -12.18612    4.24022  -12.28626
       H   -16.40119    6.18055  -13.43556
       O   -15.59083    5.73435  -13.17173
      H1   -14.89022    6.37508  -13.24254
       H   -15.94426   -0.86582  -19.15866
       O   -15.22616   -1.49245  -19.31826
      H1   -14.76399   -1.43566  -18.42491
       H   -12.22991   -3.36696  -13.37295
       O   -11.55230   -3.99053  -13.51576
      H1   -11.90576   -4.74695  -13.93998
       H   -14.88399   -3.61488  -17.49034
       O   -14.26562   -4.21509  -17.98094
      H1   -14.27970   -3.94604  -18.90258
       H   -19.50025   -7.75893  -12.38252
       O   -19.19701   -6.87373  -12.16118
      H1   -19.96754   -6.38496  -12.57807
       H   -15.14614    2.31510   -8.00760
       O   -15.53363    1.46466   -7.96663
      H1   -14.80050    0.83620   -7.79946
       H   -17.95470    3.17839  -12.14810
       O   -18.25869    2.89323  -13.05183
      H1   -18.27874    1.88530  -12.92697
       H   -12.76028    0.03077   -7.47580
       O   -13.65300   -0.34403   -7.57386
      H1   -13.97412   -0.44479   -6.68122
       H   -16.48430    6.24156  -11.26964
       O   -17.08728    6.68453  -10.66863
      H1   -17.76196    5.96388  -10.48033
       H   -14.25213    4.24983  -13.14741
       O   -13.60502    3.55345  -13.25841
      H1   -13.96788    2.78499  -12.74483
       H   -16.72926   -3.36671  -16.83832
       O   -16.06157   -2.97888  -16.24858
      H1   -16.09402   -3.53055  -15.49221
       H   -18.79927   -3.90594  -17.61370
       O   -18.18371   -4.58936  -18.04130
      H1   -18.23548   -5.43862  -17.47692
       H   -11.13613   -0.70604  -17.36779
       O   -11.05140   -0.44862  -16.43235
      H1   -11.40035   -1.17428  -15.88768
       H   -17.02478    2.34390  -14.29570
       O   -16.59399    2.54158  -15.16830
      H1   -16.64186    3.49746  -15.21096
       H   -12.80965    2.57387  -16.22759
       O   -12.06825    2.15075  -16.71241
      H1   -11.93532    1.24119  -16.34612
       H   -15.16611    1.50963  -14.64502
       O   -14.65159    0.72696  -14.30346
      H1   -13.73357    1.03172  -14.09158
       H   -19.20192    7.08265  -13.35663
       O   -18.21998    7.17741  -13.39484
      H1   -18.03194    7.43040  -12.45209
       H   -14.01750   -7.10980  -13.70708
       O   -14.37372   -6.26865  -13.41975
      H1   -14.94658   -6.32615  -12.60922

