114
frame 10 | Written by MDAnalysis XYZWriter (release 2.4.3)
       H    17.72996   16.48144    3.36871
       O    18.08935   16.20712    2.52363
      H1    17.47411   15.47417    2.30711
       H    17.34570    6.39355    7.50544
       O    18.18716    5.87170    7.62244
      H1    18.85155    6.39566    7.19896
       H    14.80527   12.12027    4.66975
       O    15.69725   11.88624    4.39177
      H1    15.60903   11.83580    3.43166
       H    18.23487    5.97966    3.19933
       O    18.72940    6.24261    2.42588
      H1    19.15365    5.47669    2.04508
       H    14.83550   15.15674    3.06477
       O    13.92139   15.30427    3.27003
      H1    13.99430   15.94197    3.92935
       H    17.82678   10.93906   13.19734
       O    17.67139   10.74653   14.12107
      H1    18.28422   11.32465   14.56978
       H    16.40936   13.62571    3.47177
       O    16.54785   14.09612    2.62667
      H1    16.28407   13.51181    1.88612
       H    18.23675    6.91325   10.37686
       O    17.87782    5.99516   10.35305
      H1    17.93688    5.81466    9.36614
       H    13.06404   11.72049    9.22225
       O    12.25551   11.46362    9.69518
      H1    11.66422   12.23526    9.93208
       H    14.18313   17.03574    8.71250
       O    14.07266   17.77130    9.32380
      H1    14.89014   18.14847    9.56169
       H    14.08849   11.15776   11.48886
       O    14.72409   10.57774   11.00550
      H1    14.34089   10.35855   10.09930
       H    11.98507    8.07616    7.24257
       O    12.59725    8.55736    6.69323
      H1    12.07487    9.31779    6.37250
       H    18.60236    8.28380    3.56253
       O    18.72341    8.59816    4.44159
      H1    19.34553    7.98004    4.88679
       H    16.58015    8.35768    4.71469
       O    15.77591    8.50011    4.20200
      H1    15.28793    7.72687    4.42181
       H    17.41101   14.28660    9.51785
       O    17.85346   15.09098    9.86942
      H1    17.76084   14.84959   10.80244
       H    19.29741   10.67551    0.41576
       O    19.48911    9.81843    0.75082
      H1    18.99576    9.21724    0.18219
       H    17.08824   12.13096    5.60833
       O    17.64327   12.43652    6.34671
      H1    18.55543   12.16481    6.14238
       H    15.61190    8.11980    7.66648
       O    15.47174    7.18329    7.69762
      H1    15.49265    6.93187    8.62228
       H    13.12140   16.85312    6.14926
       O    13.79017   16.11171    6.29044
      H1    14.62242   16.44167    5.95266
       H    12.70233   15.37764    2.19863
       O    11.97216   15.59993    1.57737
      H1    12.18753   16.45742    1.19382
       H    17.58084   17.90901    1.63256
       O    16.86376   18.39401    1.17179
      H1    16.03803   18.01521    1.38593
       H    17.22171   11.85698    9.56912
       O    17.01563   12.63791    9.07265
      H1    17.20430   12.28272    8.16108
       H    13.25654    7.22955    4.11797
       O    13.38248    6.61321    4.84628
      H1    13.06479    7.06401    5.62996
       H    13.50775   14.25734    5.96383
       O    13.51345   13.28066    5.91100
      H1    13.63115   12.95545    6.86500
       H    15.73571   19.34505    6.20119
       O    16.70574   19.15747    6.39804
      H1    17.15111   19.95588    6.03732
       H    15.33971   12.44598    8.70490
       O    14.53863   12.11851    8.23279
      H1    14.82143   11.43840    7.67462
       H    14.36024    9.10193    6.73444
       O    15.03881    9.80235    6.73395
      H1    15.52806    9.67934    5.92794
       H    11.16544   11.29437    8.22368
       O    10.81387   11.05236    7.34723
      H1    10.79746   11.90764    6.94792
       H    17.82853   10.08293   11.17530
       O    17.43410   10.96887   11.46161
      H1    16.48873   10.81875   11.56086
       H    19.16630   15.23008    6.76472
       O    18.17977   15.13138    6.78305
      H1    18.02036   14.13548    6.66684
       H    18.09706   16.89132    8.80947
       O    18.51986   17.54732    8.24511
      H1    17.80296   17.98966    7.69068
       H    17.39783   16.23309    5.42444
       O    16.87486   16.75024    4.81049
      H1    16.83057   17.64736    5.13900
       H    14.52219   13.03743    0.27530
       O    15.28071   12.61358    0.67995
      H1    15.65123   11.99920    0.01651
       H    14.63626   10.79182    1.77946
       O    14.22445   10.12947    2.35671
      H1    14.99640    9.71488    2.71256
       H    19.25008    9.13204    9.97401
       O    18.62312    8.62503   10.54692
      H1    19.29897    8.29574   11.23590
       H    12.42078   12.68371    4.10607
       O    11.61569   12.49045    3.57302
      H1    11.28216   11.64627    3.81343
       H    17.41654   15.56569   13.48870
       O    17.33963   14.76110   12.95245
      H1    17.90059   14.05633   13.36793
       H    19.83337   13.84448   11.48113
       O    19.47868   12.99127   11.06771
      H1    18.55044   12.81983   11.23383

