114
frame 11 | Written by MDAnalysis XYZWriter (release 2.4.3)
       H    12.51638    5.74541   16.39053
       O    12.00595    5.07487   16.85241
      H1    11.40056    4.67523   16.19296
       H    11.20454    6.01825   19.62662
       O    10.87244    5.21023   19.22196
      H1    11.20217    5.24324   18.33283
       H     3.93746   11.23766   17.97892
       O     3.80624   10.27774   18.00138
      H1     4.70551    9.93131   17.91145
       H     5.79688   11.89677   14.92668
       O     5.86317   11.32396   15.71151
      H1     6.28670   10.45595   15.40894
       H     5.72401    2.71023   11.89426
       O     5.41209    1.83417   11.68201
      H1     5.15880    1.39821   12.48307
       H     9.88913    8.86536   18.83727
       O     9.41098    8.39600   18.09838
      H1     8.55272    8.16148   18.38754
       H     9.07991    5.10563   18.86595
       O     8.10186    4.84821   18.82409
      H1     8.01345    3.94320   19.11242
       H     8.05715    4.31286   17.26933
       O     8.11516    3.73213   16.44098
      H1     7.14849    3.57161   16.23487
       H     5.63031    5.62098   18.67321
       O     5.20652    5.27878   17.88026
      H1     4.89359    4.41754   18.18310
       H     8.78061   11.30974   18.03920
       O     8.10045   10.67377   17.99894
      H1     8.60277    9.85128   17.94865
       H    10.34108    3.67288   14.57870
       O    11.11671    3.24700   14.86408
      H1    11.58224    3.13825   14.04894
       H     3.64986    6.63098   18.55138
       O     2.98966    6.70128   19.23419
      H1     2.52331    7.53366   19.18030
       H     3.76634    6.83949   14.09870
       O     4.06529    7.76459   14.31976
      H1     3.53656    8.20694   14.99581
       H     9.83870    7.66891   16.49284
       O    10.10987    7.52375   15.56137
      H1     9.74099    6.65241   15.30084
       H     1.90808    5.76888   13.70408
       O     2.72027    5.39494   14.10582
      H1     2.64016    5.78890   14.96389
       H     6.65712    6.03405   16.81025
       O     7.24481    6.33888   16.07190
      H1     7.72171    5.54048   15.88817
       H     6.74025    7.64247   12.99178
       O     6.37671    7.13123   12.23672
      H1     6.74061    7.57391   11.43789
       H     6.43756    2.19448   15.14447
       O     5.83458    2.99721   15.08204
      H1     5.02859    2.76330   15.52246
       H     3.99703    2.89009   19.57049
       O     4.54584    2.70349   18.77487
      H1     4.84546    1.72989   18.79908
       H     6.30590    4.08716   13.67879
       O     6.53556    4.36319   12.76236
      H1     6.34288    5.28294   12.63535
       H    10.86061    7.51448   10.93629
       O    10.68587    8.35045   10.44208
      H1     9.75024    8.54965   10.56885
       H    10.47324   -0.00439   16.83714
       O    11.19793   -0.67638   16.79858
      H1    10.82490   -1.47365   16.43676
       H     1.91944    5.70999   18.02610
       O     1.77361    5.57987   17.10458
      H1     2.02546    4.68178   16.99108
       H     2.49730    2.59755   16.33000
       O     3.46722    2.76571   16.33957
      H1     3.84771    2.48852   17.13867
       H     7.02744    0.40953   14.01700
       O     7.68691    0.77362   14.64901
      H1     7.55622    0.24759   15.47381
       H     2.61254    8.69508   11.44627
       O     3.38059    9.28356   11.46546
      H1     4.05468    8.69392   11.73533
       H     9.77695    5.39721   13.40745
       O     9.12924    5.21162   14.10871
      H1     8.29207    5.14448   13.68651
       H     9.78463    1.45789   18.26754
       O     9.50952    1.37275   17.35322
      H1     9.01505    2.15640   17.05001
       H    14.04373    2.03241   16.11944
       O    14.15661    2.94119   16.47299
      H1    13.32397    3.37184   16.52195
       H     3.61614    5.34651   10.37832
       O     4.25916    6.09186   10.34178
      H1     4.43774    6.27691   11.27113
       H     6.12208    8.06793   16.98133
       O     6.05255    8.79106   17.65693
      H1     6.81275    9.42323   17.66684
       H    11.67003    7.44799   15.02569
       O    12.40938    7.30209   14.40867
      H1    12.65938    8.23243   14.17813
       H    11.27834    5.17267   11.11360
       O    11.15319    5.75609   11.91532
      H1    12.03673    5.63008   12.26891
       H     3.82779    2.58621   12.99470
       O     2.87168    2.73646   13.12697
      H1     2.75485    3.52411   13.67486
       H     5.71221    8.65758   14.61913
       O     6.66586    8.86584   14.68849
      H1     7.03270    8.05391   15.12950
       H     9.43398    0.61813   14.36819
       O    10.36800    0.57015   14.07092
      H1    10.67441    1.41627   14.40483
       H    11.24971   11.42604   14.95152
       O    10.45006   10.93839   14.82829
      H1    10.67710   10.03406   15.11727
       H     7.90754    4.75490    9.76473
       O     8.57103    4.23460   10.23012
      H1     8.06812    4.17825   11.03516

