114
frame 9 | Written by MDAnalysis XYZWriter (release 2.4.3)
       H    -2.72760   -8.42761   -0.43350
       O    -3.25703   -8.99144    0.24013
      H1    -3.04642   -8.50703    1.07551
       H     1.07137   -8.72225    0.60844
       O     1.33799   -8.41049   -0.28275
      H1     2.30280   -8.39198   -0.27622
       H    -4.78171   -7.39202   -1.71905
       O    -5.12223   -8.30383   -1.84874
      H1    -4.75956   -8.68021   -1.01211
       H    -0.90558   -8.14478   -2.89625
       O    -0.28291   -8.25121   -3.70498
      H1    -0.81597   -8.46678   -4.43561
       H    -0.53698   -2.69849   -4.43797
       O    -1.32231   -2.42747   -3.94797
      H1    -1.11066   -1.51846   -3.68478
       H     1.83933   -7.94739   -3.87066
       O     2.78650   -8.17841   -3.76164
      H1     3.22649   -7.87252   -4.52143
       H    -2.47205   -4.87884   -4.05464
       O    -2.40768   -5.39153   -4.85559
      H1    -2.10617   -4.74751   -5.55362
       H    -4.25275   -2.98694   -2.04405
       O    -3.71529   -3.54289   -2.60933
      H1    -3.05382   -2.92749   -3.06238
       H     1.60409   -5.44941   -4.91615
       O     1.96852   -4.70122   -4.45238
      H1     2.16955   -5.13136   -3.60431
       H     2.68909   -6.53603    3.14216
       O     1.99235   -7.25813    3.12697
      H1     2.21650   -7.73395    3.96273
       H     0.17907   -4.82872    1.21935
       O     0.16377   -4.21382    0.49282
      H1     1.01454   -4.02609    0.09560
       H    -0.52237  -12.83563   -3.50403
       O     0.27716  -12.38764   -3.81067
      H1     0.46882  -11.69382   -3.14465
       H     3.74047   -4.99875   -1.43637
       O     3.39014   -5.89674   -1.33592
      H1     3.30046   -6.32931   -2.20068
       H    -4.44546  -10.70871    4.13934
       O    -4.18045   -9.92350    3.55936
      H1    -3.29907  -10.15609    3.25331
       H    -4.39424  -11.51675   -4.03677
       O    -4.51009  -12.47647   -4.03454
      H1    -4.76977  -12.67420   -4.98164
       H    -5.15203   -6.92504    3.96151
       O    -4.26605   -6.49231    3.77118
      H1    -4.45146   -5.99374    2.96762
       H    -1.61674   -6.59534   -1.37577
       O    -1.50577   -7.57128   -1.41518
      H1    -0.76409   -7.72781   -0.91492
       H    -8.14503   -7.74683   -1.50567
       O    -7.51687   -8.27821   -1.01309
      H1    -6.70607   -8.27261   -1.50361
       H     0.34548   -9.61338   -2.71060
       O     0.47196  -10.26651   -1.98194
      H1     0.94781   -9.81887   -1.30194
       H    -3.83383   -5.42779   -1.09201
       O    -4.76208   -5.69132   -0.93765
      H1    -5.33815   -4.97408   -1.28378
       H    -2.55368  -10.31956    1.45943
       O    -1.97257  -10.96006    1.85007
      H1    -2.57075  -11.58977    2.28085
       H    -5.33060  -11.77034    0.47035
       O    -4.39493  -11.84348    0.13525
      H1    -4.36468  -12.55551   -0.48319
       H    -1.05670  -12.30266    1.13408
       O    -0.74374  -13.08452    0.59710
      H1    -0.44340  -12.62195   -0.20435
       H    -5.18925   -7.45959   -5.51779
       O    -4.41210   -7.18130   -5.98359
      H1    -3.85536   -6.61664   -5.41547
       H    -1.53382   -7.22444    2.95430
       O    -2.11074   -7.97779    3.20988
      H1    -2.96337   -7.51092    3.25139
       H    -1.44511   -4.54429   -0.39157
       O    -2.13491   -5.06681   -0.91829
      H1    -2.56807   -4.36186   -1.45685
       H     4.71737   -8.86922   -0.98811
       O     4.08306   -8.43499   -0.38233
      H1     4.06813   -7.49746   -0.64833
       H     0.66276   -9.19773    2.92813
       O     0.72776   -9.79372    2.17524
      H1    -0.14407  -10.23213    2.20770
       H    -1.87364   -2.51195    2.08839
       O    -1.03090   -2.19629    1.71379
      H1    -0.71736   -3.03596    1.32893
       H     0.60731   -7.16092   -5.98037
       O     0.36360   -6.26382   -5.98122
      H1    -0.43067   -6.11834   -5.47537
       H     3.43506   -9.82110   -3.70668
       O     3.58136  -10.77061   -3.51756
      H1     2.84816  -10.84573   -2.90771
       H    -5.46047   -9.31451    1.87085
       O    -6.30703   -8.88596    2.09155
      H1    -6.47642   -8.33032    1.35681
       H    -0.73622   -5.49259    3.19585
       O    -0.28241   -6.02332    2.47316
      H1     0.55561   -6.33680    2.83945
       H    -2.67255   -9.88449   -5.08773
       O    -2.40230   -9.36502   -5.86661
      H1    -2.91416   -8.57891   -5.70067
       H    -4.10179   -9.57898   -3.06422
       O    -3.36831  -10.08501   -3.53522
      H1    -2.85214  -10.48203   -2.81650
       H    -2.60777  -10.93677   -0.68347
       O    -2.10173  -11.25223   -1.42951
      H1    -1.28880  -10.73598   -1.32831
       H    -5.64976   -4.44858   -5.38377
       O    -5.43999   -3.66974   -4.86634
      H1    -4.76142   -3.97891   -4.25851
       H    -4.73023   -5.28044    0.65607
       O    -4.87537   -5.17682    1.63570
      H1    -4.36556   -4.35786    1.91837

