114
frame 1 | Written by MDAnalysis XYZWriter (release 2.4.3)
       H   -16.69688    7.99625    9.97209
       O   -16.64832    7.55863   10.85923
      H1   -17.50406    7.10902   11.11857
       H   -17.65368   13.89654   11.41143
       O   -17.70837   12.96701   11.11201
      H1   -18.51420   12.88009   10.59376
       H   -16.76018    5.00221    6.97924
       O   -16.08612    4.41063    7.35201
      H1   -15.84444    4.76226    8.22992
       H   -18.48604   12.64413    4.72016
       O   -18.69035   12.17261    5.53384
      H1   -18.42320   12.87468    6.14010
       H   -17.12600    3.03587    7.27095
       O   -17.74748    2.29579    7.14286
      H1   -18.54852    2.60667    7.60176
       H   -15.72236    6.23940   10.32492
       O   -15.05380    5.62470    9.86524
      H1   -14.70038    5.09189   10.57397
       H   -13.62441   10.41927    9.01422
       O   -14.56953   10.37832    8.86033
      H1   -15.01304   11.27852    9.00317
       H   -18.81385    4.68618   15.20259
       O   -18.05606    4.79784   14.59653
      H1   -17.46597    4.03318   14.88852
       H   -15.93541    9.73233    7.90958
       O   -16.65335    9.14462    7.67330
      H1   -17.34580    9.24494    8.35396
       H   -12.07773    4.72296    7.59614
       O   -12.11588    5.44407    8.26559
      H1   -12.79025    5.16925    8.87385
       H   -19.10259    2.38771   13.02406
       O   -19.05778    2.38403   12.08229
      H1   -18.23856    2.76698   11.83050
       H   -19.98979    6.90552    5.53285
       O   -19.74707    6.11434    5.08654
      H1   -19.02495    6.43632    4.53902
       H   -11.86770    8.78646    8.14841
       O   -11.19099    8.12937    8.14189
      H1   -11.65820    7.28253    8.07382
       H   -17.51964    6.40051   14.31238
       O   -17.37616    7.31386   14.61733
      H1   -16.87142    7.76940   13.92909
       H   -17.03952   13.10162    2.84452
       O   -17.66186   13.55879    3.46436
      H1   -17.21050   14.41222    3.56535
       H   -13.98240   10.80399   12.04304
       O   -13.25327   11.46369   12.07794
      H1   -12.87203   11.54167   11.17588
       H   -14.35289   15.04264    7.83312
       O   -14.73913   15.40906    7.01924
      H1   -14.86477   14.63960    6.43178
       H   -13.27733   14.73663    9.58413
       O   -13.45385   13.98670    9.07511
      H1   -14.21095   13.51789    9.49975
       H   -12.43023    7.51814    4.21126
       O   -12.24973    6.66011    4.60510
      H1   -13.01922    6.29052    4.94455
       H   -19.78264   11.79606   14.05851
       O   -19.54649   12.41618   14.81951
      H1   -19.23104   11.79695   15.49893
       H   -17.93576    6.65756    2.68000
       O   -17.44643    7.04372    3.40598
      H1   -16.56198    6.83941    3.07636
       H   -15.92905    9.04906   11.88705
       O   -15.22817    9.49161   12.41470
      H1   -14.41606    8.99000   12.18998
       H   -19.03325    1.09337    4.79082
       O   -19.64319    1.81312    4.74813
      H1   -19.38412    2.44473    5.44829
       H   -17.14563   10.59027    2.20793
       O   -17.75948    9.81751    2.18376
      H1   -17.44379    9.21882    2.83433
       H   -19.01757   14.06796    8.28255
       O   -18.39495   14.26905    7.55808
      H1   -18.85497   14.91348    6.95841
       H   -19.86410    5.77045   10.82521
       O   -19.39622    6.65051   11.08121
      H1   -19.88653    6.92115   11.90768
       H   -17.31228    7.36439    6.97093
       O   -17.73016    6.48256    6.79660
      H1   -18.48474    6.59811    6.21203
       H   -15.06304   11.89768    5.80226
       O   -15.63393   12.66470    5.92098
      H1   -16.53393   12.36439    5.91031
       H   -14.11438    6.73635    2.37954
       O   -14.97653    6.33769    2.27937
      H1   -14.87815    6.06970    1.32642
       H   -15.17247    4.51254    5.53061
       O   -14.51665    4.23200    4.86346
      H1   -15.10229    4.23236    4.06075
       H   -12.83821    9.71658    4.53945
       O   -12.59497    9.17452    3.76379
      H1   -12.14662    9.77824    3.14520
       H   -17.37499   15.16528    8.81209
       O   -17.36296   15.91749    9.40874
      H1   -16.67892   15.83941   10.14316
       H   -13.00913   11.94473    5.54919
       O   -13.45980   11.07914    5.74074
      H1   -13.41245   11.07726    6.72858
       H   -18.77739   16.58905    5.49257
       O   -19.43413   15.81726    5.59759
      H1   -20.15170   16.13250    6.20296
       H   -19.34932    6.82437    0.83466
       O   -18.83670    6.07326    1.12332
      H1   -19.54801    5.48726    1.36993
       H   -19.36576    8.63842    8.18367
       O   -19.08969    8.68810    9.07714
      H1   -19.26115    7.79211    9.44591
       H   -14.38310    6.82963    7.86309
       O   -14.11376    7.71079    7.55081
      H1   -14.98003    8.21822    7.59466
       H   -16.68902   12.86943    9.64179
       O   -15.94974   12.62685    9.09846
      H1   -16.15341   12.77264    8.14531

