114
frame 5 | Written by MDAnalysis XYZWriter (release 2.4.3)
       H    16.53582   14.79702    2.92732
       O    16.61609   14.17041    2.16861
      H1    16.67943   13.29224    2.59556
       H     9.53192   18.27628   11.83937
       O     8.79702   17.60975   11.70378
      H1     8.55944   17.46253   12.61691
       H     9.52591   17.46839    2.76939
       O     8.80400   17.99544    3.00244
      H1     8.38326   17.50250    3.68881
       H    13.84184   15.90155    2.29724
       O    13.78275   15.04246    1.89506
      H1    14.71777   14.75227    1.86469
       H     7.47240   16.77550    8.30032
       O     7.72144   16.01467    8.85092
      H1     7.67327   15.23561    8.28756
       H    10.56096   19.33543    1.03674
       O    11.33943   19.54896    1.48667
      H1    11.25477   19.23683    2.39046
       H    12.46461   11.35855    9.07881
       O    11.62934   11.40844    9.60595
      H1    11.67061   12.30597    9.99359
       H    14.61058   17.23823    9.31865
       O    14.79073   17.10678   10.25685
      H1    15.53762   16.47549   10.22600
       H     8.98620   19.86058    9.72676
       O     8.55718   19.10663    9.26973
      H1     8.11785   18.58714    9.94203
       H    14.72875   17.88025    3.47856
       O    13.85415   17.51929    3.12982
      H1    13.28677   17.47865    3.90999
       H    10.24704   16.50140   10.54927
       O    11.16181   16.28691   10.24361
      H1    11.72647   16.45567   11.07145
       H    11.70934   17.58235    8.98607
       O    11.62368   18.39616    8.47299
      H1    10.68705   18.54955    8.41619
       H    16.50966   14.34494    9.35112
       O    17.00206   15.17299    9.51695
      H1    17.23539   15.09929   10.40080
       H     7.57944   16.79172    0.55121
       O     7.87060   15.95755    0.12540
      H1     8.79467   15.93510    0.33893
       H    14.06288   18.37399    6.70038
       O    14.60485   17.76150    7.17792
      H1    15.60782   17.89805    6.98762
       H    14.23334   15.37833    0.03707
       O    14.04625   16.02878   -0.61126
      H1    13.52560   16.65199   -0.08982
       H    10.20858   13.88058    6.19956
       O    10.42560   13.16858    5.60339
      H1    11.38810   12.98153    5.61805
       H     7.91037   18.70121    7.59366
       O     7.79927   18.09363    6.85375
      H1     7.10553   18.36256    6.24000
       H    15.82383   19.00442    4.71063
       O    16.07747   18.76845    3.82967
      H1    15.59001   19.48422    3.30359
       H    16.61152   12.39063    8.96825
       O    15.83484   13.01133    8.68941
      H1    16.01880   13.24689    7.78503
       H    14.02403   13.45117    5.70142
       O    13.26235   12.85772    5.83865
      H1    13.48732   11.97502    5.64216
       H     9.17212   16.36321    7.21308
       O     9.66627   15.82594    6.60090
      H1     9.12585   15.61840    5.84558
       H    12.69296   19.32085    9.59991
       O    13.54792   19.58231   10.00600
      H1    13.96788   18.77301   10.39528
       H    16.86425   19.26620    7.92008
       O    17.13029   18.75075    7.09836
      H1    17.71567   19.34789    6.55042
       H     7.44728   15.04939    3.36212
       O     7.67623   15.37692    4.27706
      H1     6.94849   14.91212    4.76085
       H    11.51746   19.34710    4.74900
       O    10.60692   19.49238    4.37760
      H1    10.18154   18.63719    4.44563
       H     6.76350   19.45438    1.12971
       O     7.04714   18.52636    1.17972
      H1     7.75363   18.64688    1.85547
       H    10.72858   11.06006    8.01569
       O    10.46274   11.05135    7.05522
      H1    10.35275   11.96575    6.76820
       H    11.90151   17.72470    6.84164
       O    11.80501   17.40914    5.90095
      H1    11.14193   16.75388    6.06889
       H    10.90648   14.56627   10.38588
       O    11.14183   13.81069   10.89408
      H1    10.34707   13.29964   11.18091
       H    16.92941   17.23112    4.32628
       O    17.35638   16.42455    4.52833
      H1    18.15031   16.67692    4.99916
       H    13.06619   16.40169   12.71453
       O    12.84861   17.08949   12.09517
      H1    13.62757   17.15194   11.52142
       H     8.61135   13.54356    1.91497
       O     7.73942   13.68631    1.53789
      H1     7.78727   14.48103    0.99868
       H    14.74389   15.70070    6.63399
       O    15.36574   15.04692    6.32019
      H1    15.89165   15.50271    5.69199
       H    10.64840   16.15495    0.63309
       O    10.30687   15.83462    1.48197
      H1    10.63265   14.91036    1.61201
       H    12.78238   13.62967    2.18152
       O    12.43303   12.75016    2.09494
      H1    12.76585   12.12353    2.76132
       H     5.51058   18.46157    4.20941
       O     6.43697   18.59725    4.48436
      H1     6.66665   19.47314    4.22346
       H     9.96136   13.04094    3.77641
       O     9.97527   12.75887    2.86111
      H1    10.92485   12.67027    2.60512

