114
frame 4 | Written by MDAnalysis XYZWriter (release 2.4.3)
       H    -4.52837  -15.77257   16.14069
       O    -4.29559  -16.32410   15.34593
      H1    -4.84142  -15.94731   14.62650
       H    -9.30220   -8.37557   16.95229
       O    -9.47468   -9.23270   16.48341
      H1    -9.89624   -8.88666   15.70103
       H    -8.58628  -14.86166   16.44710
       O    -8.07385  -15.53982   16.00097
      H1    -7.85912  -15.18344   15.12261
       H    -8.42512  -12.18361   11.34424
       O    -8.00549  -12.95376   11.68282
      H1    -7.17914  -12.52927   12.16401
       H    -6.76160  -17.91010   14.62109
       O    -7.02215  -17.99141   13.72857
      H1    -7.65696  -18.70284   13.75695
       H    -7.71341  -14.88243   12.62651
       O    -7.02531  -15.26664   13.21177
      H1    -7.21537  -16.27079   13.27475
       H    -1.22702  -16.21477   14.30722
       O    -1.66210  -16.86184   14.88998
      H1    -2.55660  -16.57643   14.90485
       H    -3.45747  -13.41136   19.45250
       O    -4.12253  -12.83444   19.10947
      H1    -4.11640  -12.91436   18.14561
       H   -11.44379  -12.29541   14.99886
       O   -10.71913  -12.80061   14.67742
      H1   -10.62662  -12.55444   13.78612
       H    -0.69758  -17.38887   18.39847
       O    -1.32161  -17.77815   17.81773
      H1    -1.83595  -17.12232   17.38483
       H    -0.43501  -14.34546   19.67239
       O    -0.86771  -13.52156   19.42837
      H1    -0.31700  -13.16563   18.74604
       H    -2.50591   -9.50006   13.34035
       O    -1.72451   -9.89368   12.81105
      H1    -2.17504  -10.52251   12.18312
       H    -6.62620   -8.29601   15.11847
       O    -6.84949   -7.40047   14.88318
      H1    -7.43908   -7.54291   14.10769
       H    -2.28727  -12.82684   15.45066
       O    -2.66929  -13.64199   15.08235
      H1    -3.20076  -13.46386   14.29080
       H    -5.51319  -13.10608   16.64244
       O    -4.98715  -12.59725   16.04932
      H1    -4.29424  -13.26821   15.79594
       H    -4.06776  -15.34217    9.90655
       O    -3.77070  -14.46549   10.24042
      H1    -2.78937  -14.42228   10.19842
       H    -2.21804   -8.77609   16.78733
       O    -2.52550   -9.42907   17.45369
      H1    -1.99382   -9.24572   18.26796
       H    -4.52798   -8.19573   11.55467
       O    -4.94417   -7.41416   11.30448
      H1    -4.65348   -7.40366   10.39601
       H    -0.57248  -11.85250   16.63588
       O    -1.13595  -11.32735   15.98374
      H1    -1.72073  -10.84956   16.62293
       H    -6.68328   -8.60369   18.32596
       O    -6.59973   -9.18503   19.08637
      H1    -6.91006  -10.06376   18.64944
       H    -9.43020  -17.07897   18.35613
       O    -9.51153  -17.40516   17.42392
      H1    -9.04984  -16.70207   16.86007
       H    -4.12850  -14.07473   11.95466
       O    -4.43550  -13.84987   12.87021
      H1    -5.23786  -14.42019   12.94741
       H    -4.84900  -18.67415   16.63515
       O    -5.35314  -19.40627   16.97331
      H1    -4.72070  -19.92097   17.53228
       H    -1.18689   -7.63016   14.66883
       O    -1.06943   -8.29071   15.38047
      H1    -0.87355   -9.16212   15.05423
       H    -0.19892  -11.01036   13.79726
       O     0.68649  -11.27307   13.60356
      H1     0.99066  -11.69822   14.41226
       H    -5.34033  -12.38900   13.16263
       O    -6.07943  -11.80684   13.02963
      H1    -6.17787  -11.34509   13.87103
       H    -9.54084  -12.70021   16.02415
       O    -9.15715  -13.07123   16.84409
      H1    -9.96097  -13.29565   17.29074
       H    -1.09583  -14.20252   13.99877
       O    -0.39504  -14.72277   13.56305
      H1    -0.62240  -14.74518   12.64419
       H    -6.21740  -10.64577   16.47965
       O    -6.43786   -9.87604   15.93753
      H1    -7.38385   -9.69405   16.09165
       H     2.05034  -13.77470   14.68831
       O     1.32194  -13.94681   15.32899
      H1     0.63383  -14.30126   14.67833
       H    -4.72323   -8.72612   14.23643
       O    -4.07004   -8.99114   13.61416
      H1    -3.65794   -8.11808   13.42434
       H    -6.31477  -14.52103   18.26940
       O    -5.92290  -14.84707   17.45701
      H1    -6.67658  -15.26888   17.03968
       H    -3.83438   -8.43251   17.90345
       O    -4.30290   -7.62030   18.01670
      H1    -3.60290   -7.09055   18.41814
       H    -4.51011  -11.34628   11.42487
       O    -3.53673  -11.39116   11.17215
      H1    -3.51223  -10.72051   10.48921
       H    -5.15554   -6.33187   15.04561
       O    -4.28590   -6.25799   15.52587
      H1    -4.35341   -6.75128   16.33654
       H    -7.80629  -12.12437   17.79170
       O    -7.06237  -11.75646   18.24957
      H1    -6.85914  -12.32395   19.01604
       H    -0.64503  -14.93677   10.58911
       O    -1.19919  -14.31564   11.07729
      H1    -0.79877  -13.44033   10.98862
       H     1.33740  -12.97221   17.02435
       O     0.84008  -12.48720   17.65579
      H1     1.37485  -12.51306   18.48690

