114
frame 11 | Written by MDAnalysis XYZWriter (release 2.4.3)
       H    15.61765    3.74739  -18.85026
       O    15.59789    4.70760  -18.72900
      H1    15.73607    5.06919  -19.59462
       H    16.93095  -12.15066  -17.61661
       O    17.63446  -11.88245  -17.04198
      H1    17.92582  -11.00749  -17.39202
       H    13.70547    0.96049  -14.91683
       O    14.27830    0.43998  -15.50833
      H1    15.18688    0.78519  -15.37260
       H    13.64223   -7.07768  -18.71352
       O    13.58659   -7.56546  -17.87733
      H1    14.07225   -8.37962  -18.15162
       H    13.91858    1.83657  -18.69354
       O    14.35406    2.01716  -17.81066
      H1    14.22765    1.22354  -17.21514
       H    17.40396   -4.06430  -11.93871
       O    17.10807   -4.93206  -12.24082
      H1    16.88090   -5.47854  -11.46906
       H    10.91119    0.28847  -17.82195
       O    11.12943   -0.15915  -16.96698
      H1    10.64152   -1.00234  -16.92046
       H    15.81686   -5.73730  -13.46955
       O    15.16339   -5.96242  -14.14446
      H1    14.32309   -6.07472  -13.75018
       H    11.03526   -6.56087  -16.84260
       O    10.63145   -6.90430  -17.62978
      H1     9.96187   -6.32595  -17.97498
       H    17.35433    0.39687  -14.79297
       O    16.92712    1.11979  -15.27346
      H1    17.00121    0.88691  -16.20925
       H    18.39775    4.47093  -19.26637
       O    18.82548    3.62479  -19.26549
      H1    19.83117    3.69664  -19.22531
       H    14.38085   -1.49935  -17.31274
       O    13.76744   -1.01747  -17.93038
      H1    12.98265   -0.70973  -17.42890
       H    15.69105   -4.05477  -13.93314
       O    15.98512   -3.17363  -14.04860
      H1    16.17816   -2.98407  -14.98268
       H    16.90283   -6.65215  -19.39329
       O    16.45799   -7.24102  -18.77484
      H1    16.22099   -6.65053  -18.04459
       H    11.66595   -8.60551  -15.69019
       O    12.55130   -8.29605  -15.50194
      H1    12.88638   -8.05632  -16.33092
       H    10.39204   -1.99764  -13.04627
       O    10.93660   -2.52323  -13.69111
      H1    11.83018   -2.23659  -13.61505
       H    19.08250   -0.17416  -13.79591
       O    18.27864   -0.67396  -13.88543
      H1    18.60087   -1.29475  -14.53567
       H    13.43935   -1.81301  -12.27459
       O    13.23136   -1.65398  -11.30159
      H1    12.69886   -2.37654  -10.92529
       H    13.02164  -11.51013  -19.11405
       O    13.36901  -10.98189  -18.41164
      H1    12.73726  -10.27451  -18.23231
       H    20.08759   -8.25189  -14.43401
       O    19.21475   -8.67294  -14.38259
      H1    19.03353   -8.63611  -13.42349
       H    16.71121   -3.98003  -19.38927
       O    15.78587   -3.66606  -19.34370
      H1    15.66993   -3.38711  -18.38805
       H    16.12328   -4.00016  -16.80740
       O    16.30706   -3.00597  -16.80073
      H1    17.13923   -2.81101  -17.32130
       H    18.02178   -1.74600  -12.55321
       O    18.05166   -2.25178  -11.67798
      H1    17.14660   -2.30296  -11.34567
       H    14.66884  -10.17792  -19.23358
       O    15.31814   -9.79274  -19.78578
      H1    16.14480  -10.31300  -19.64565
       H    19.31629   -2.00399  -17.53035
       O    18.48721   -2.19950  -17.97361
      H1    18.53898   -1.81902  -18.85277
       H    13.84949    3.29906  -16.49185
       O    13.29169    3.63017  -15.80244
      H1    12.43448    3.38143  -16.18291
       H    10.60089   -2.76399  -15.37194
       O    10.50732   -3.01372  -16.26858
      H1     9.62432   -3.40001  -16.38527
       H    12.47459   -6.33205  -13.20817
       O    12.28622   -5.96807  -14.10286
      H1    12.52344   -6.77503  -14.55546
       H    18.40235   -8.66392  -18.52905
       O    18.80607   -9.39367  -18.04798
      H1    19.73018   -9.55081  -18.19676
       H    10.96451    2.32869  -18.80471
       O    10.81357    1.47006  -19.20708
      H1    11.66112    1.14378  -19.56488
       H    18.36258   -4.86012  -13.84453
       O    19.23566   -5.16900  -14.17406
      H1    19.08021   -5.83014  -14.81881
       H    17.36576   -9.36521  -15.12086
       O    16.41623   -9.68559  -15.21134
      H1    16.02614   -8.96016  -15.66972
       H    14.63312   -2.33715  -13.86792
       O    13.75630   -1.87420  -13.92904
      H1    13.89489   -1.03088  -14.46772
       H    10.85393   -8.82415  -18.04755
       O    11.06098   -9.69958  -18.40835
      H1    10.60464  -10.38227  -17.80507
       H    11.71778   -3.52128  -17.57513
       O    12.09917   -3.24495  -18.41173
      H1    12.62833   -2.46488  -18.13487
       H    18.17571    1.34833  -17.86487
       O    17.33959    1.01556  -18.19722
      H1    17.00070    1.75801  -18.70191
       H    14.74970   -5.71061  -17.01060
       O    15.64199   -5.54601  -16.70798
      H1    15.44157   -5.69735  -15.70333
       H     8.24623   -4.37378  -17.45631
       O     8.56756   -4.66427  -18.32473
      H1     9.15806   -4.01262  -18.65977

