114
frame 2 | Written by MDAnalysis XYZWriter (release 2.4.3)
       H   -10.82895  -16.13578   -7.17463
       O   -10.01756  -16.50012   -7.62405
      H1   -10.33510  -17.36593   -7.93859
       H    -9.64269  -19.45489   -6.82374
       O    -9.77337  -19.34383   -5.86164
      H1   -10.69064  -19.10837   -5.72227
       H    -1.71867  -16.33277  -10.51793
       O    -2.67108  -16.27944  -10.29739
      H1    -2.75435  -15.33999  -10.40869
       H   -10.62083  -16.50935   -3.56359
       O   -10.09722  -16.02207   -4.27755
      H1    -9.25291  -16.51690   -4.44192
       H     0.68629  -11.84506   -6.62348
       O     0.11390  -12.39833   -7.15642
      H1    -0.42586  -12.96335   -6.55831
       H    -7.43381  -16.55490  -13.94777
       O    -7.15027  -17.43098  -13.68964
      H1    -6.97020  -17.91321  -14.48557
       H    -1.25482  -18.07521   -7.15319
       O    -0.79074  -18.90686   -7.31441
      H1    -1.31073  -19.29806   -8.04000
       H    -4.21458  -18.41156   -5.12767
       O    -3.28276  -18.75073   -4.95786
      H1    -2.69299  -18.26530   -5.53005
       H    -4.74353  -17.77556  -16.02731
       O    -3.97400  -17.21377  -16.00339
      H1    -3.48967  -17.36434  -15.20563
       H    -7.23530  -17.34833  -10.62785
       O    -7.28531  -16.52271  -11.14095
      H1    -7.12317  -16.80055  -12.07457
       H    -1.98805  -19.19002  -10.29394
       O    -2.01386  -19.73621   -9.50993
      H1    -3.00066  -19.75301   -9.30962
       H    -6.19789  -15.16583  -11.04811
       O    -5.54312  -14.45467  -11.08652
      H1    -5.80434  -14.02834  -11.88919
       H    -8.65301  -14.26951   -5.78854
       O    -9.25252  -13.51729   -5.98313
      H1    -9.53890  -13.30425   -5.13637
       H    -1.87558  -14.44857   -5.09093
       O    -1.65587  -13.55874   -5.32020
      H1    -2.06330  -12.94134   -4.73009
       H    -8.49412  -17.79394   -5.53965
       O    -7.96987  -17.03873   -5.40017
      H1    -7.71931  -16.71249   -6.27938
       H    -6.14921  -14.99040   -7.19576
       O    -6.90796  -15.51360   -7.54721
      H1    -7.31105  -15.07957   -8.28998
       H    -2.93372  -16.90644  -12.98110
       O    -2.33454  -17.16749  -13.68419
      H1    -1.70592  -17.84101  -13.36667
       H   -10.29191  -19.13290   -9.38582
       O    -9.51482  -19.13472   -8.80314
      H1    -8.87391  -19.78527   -9.14852
       H    -5.34476  -12.84457  -13.74240
       O    -6.08862  -12.88289  -13.09754
      H1    -6.08615  -12.00909  -12.65227
       H    -4.24134  -13.78349   -6.59700
       O    -4.54562  -14.65834   -6.32612
      H1    -4.74129  -14.61366   -5.38126
       H    -4.18636  -13.52261  -10.36832
       O    -3.32240  -13.13108  -10.15228
      H1    -3.44225  -12.85324   -9.21934
       H    -6.38511  -19.76661   -4.46324
       O    -6.06839  -18.98731   -4.97843
      H1    -6.75836  -18.27941   -4.86660
       H    -2.51493  -15.49076   -6.64149
       O    -1.82919  -16.14291   -6.39551
      H1    -1.10328  -15.82636   -6.88349
       H    -3.03246  -12.16604   -7.12745
       O    -3.85610  -12.47637   -7.51601
      H1    -4.47140  -11.72072   -7.54410
       H     0.78925  -17.74936  -10.47361
       O     0.17741  -17.61387   -9.68782
      H1     0.41469  -18.26527   -9.00762
       H    -3.30954  -10.04662  -11.13417
       O    -2.52003  -10.71253  -11.11906
      H1    -2.96253  -11.55047  -10.87175
       H    -6.14858  -14.10463   -3.44446
       O    -5.42674  -14.66655   -3.59309
      H1    -4.86963  -14.51828   -2.77513
       H    -1.11830  -19.81865  -12.96319
       O    -0.64022  -19.01529  -12.89546
      H1     0.06003  -19.05932  -13.57571
       H     0.72681  -18.57269   -6.63056
       O     1.52699  -18.53820   -6.03942
      H1     1.95152  -17.65652   -6.24398
       H    -2.26605  -18.42762   -3.08019
       O    -1.49872  -18.37106   -2.54208
      H1    -1.87717  -19.03903   -1.92822
       H    -8.81793  -15.17852  -10.04400
       O    -8.95559  -14.64269   -9.23862
      H1    -9.41535  -15.25862   -8.68979
       H   -10.11685  -17.79745  -13.14291
       O    -9.56781  -18.58566  -13.03904
      H1    -8.66022  -18.24055  -13.14415
       H     1.29982  -15.54723   -7.54409
       O     0.41989  -15.52837   -7.95165
      H1     0.36788  -16.20164   -8.63962
       H     1.86354  -13.49917  -10.37705
       O     1.00123  -13.93490  -10.42814
      H1     0.70006  -14.29720   -9.56330
       H    -8.16905  -17.23239   -2.29413
       O    -7.30922  -16.84203   -2.19868
      H1    -6.94815  -16.59549   -3.06629
       H    -6.25752  -10.54599   -6.82295
       O    -5.64050  -10.48813   -7.54466
      H1    -6.07335  -10.95304   -8.26247
       H    -4.07284  -16.64621   -9.07731
       O    -4.74529  -17.07356   -8.56383
      H1    -5.50448  -16.45963   -8.38105
       H    -6.62072  -13.05591  -10.09137
       O    -6.66196  -12.22359   -9.62645
      H1    -7.37383  -12.35227   -8.98570

