114
frame 2 | Written by MDAnalysis XYZWriter (release 2.4.3)
       H     7.34708  -17.06496   13.15993
       O     8.04789  -17.29796   12.58904
      H1     8.81845  -17.25125   13.18110
       H     6.59709  -18.20144   18.10897
       O     7.43198  -18.51853   17.70136
      H1     7.72094  -17.69707   17.28123
       H    -0.75130  -18.32246   18.84039
       O     0.15366  -18.60289   19.10230
      H1     0.74205  -18.52477   18.33029
       H    -4.46680  -15.60968   15.02750
       O    -4.35154  -16.28132   14.38311
      H1    -4.49047  -15.90762   13.51311
       H     0.66999  -12.26809   11.58412
       O     0.29534  -12.89874   10.93764
      H1     0.13761  -12.39508   10.11907
       H     5.52859  -14.96727   19.42156
       O     6.03975  -15.61734   18.85830
      H1     6.13976  -15.13386   18.00950
       H     5.29987  -13.51860   11.68208
       O     5.75331  -14.33794   11.92512
      H1     6.42199  -14.45923   11.21527
       H    -1.21822  -16.49078   14.79303
       O    -1.85164  -17.20667   14.59471
      H1    -2.73628  -16.82030   14.45512
       H    -1.91676  -11.83494   18.56612
       O    -2.80821  -11.47038   18.76511
      H1    -2.82711  -10.55715   18.40057
       H    -1.67904  -15.52529   17.54762
       O    -2.46321  -15.85759   17.19728
      H1    -2.20224  -16.26935   16.38836
       H     0.09270  -13.41516   18.71965
       O    -0.04200  -12.42403   18.59087
      H1     0.41395  -12.32411   17.74450
       H     5.96262  -17.36098    9.86250
       O     6.85550  -17.15300   10.12203
      H1     6.88289  -17.42277   11.06930
       H    -2.52559  -12.14889   12.69178
       O    -2.47622  -12.92495   13.28992
      H1    -3.34399  -13.30256   13.25582
       H    -2.17908  -17.23832   20.16327
       O    -2.51636  -17.68229   19.31685
      H1    -2.54250  -17.00674   18.68832
       H     0.08701  -11.73078   15.46361
       O    -0.34421  -11.37299   14.69902
      H1    -0.97488  -12.01470   14.39833
       H     4.28648  -10.76996   14.77701
       O     4.42922  -10.45128   13.84893
      H1     3.55245  -10.70029   13.54162
       H     7.50290  -16.58128   15.59435
       O     8.24946  -16.50168   16.20825
      H1     8.05254  -15.69490   16.72440
       H     1.14022  -11.42444   13.73017
       O     1.94522  -11.47419   13.17179
      H1     2.29397  -12.33582   13.48225
       H     0.24701  -15.79198   19.29967
       O     0.10913  -15.40374   18.45257
      H1     0.83710  -15.75818   17.92087
       H     3.32825  -10.60572   17.06075
       O     3.72375  -11.27540   16.44792
      H1     3.96888  -12.00492   17.08229
       H     2.06041  -19.31511   12.12241
       O     2.90373  -18.83747   11.88854
      H1     3.33325  -19.39051   11.18860
       H     2.67628  -12.88822   18.94777
       O     3.39424  -12.28538   19.04534
      H1     3.19269  -11.59520   19.70288
       H     4.39748  -17.00414   18.66091
       O     4.40297  -17.93583   18.27906
      H1     4.54502  -18.48189   19.06873
       H    -0.87390  -13.85049   13.15614
       O    -0.33907  -14.65041   13.25170
      H1    -0.51390  -15.23240   12.53065
       H    -1.14478  -19.00716   11.33277
       O    -0.24970  -19.08530   10.97599
      H1    -0.20251  -18.41010   10.21816
       H     2.75631  -15.05281   13.46258
       O     2.33811  -14.32013   13.97056
      H1     1.39460  -14.28096   13.64320
       H     1.97358  -17.17843   16.19318
       O     1.94847  -16.23551   16.08161
      H1     2.32722  -16.02449   15.21944
       H     2.58630  -15.53589   10.27210
       O     2.38844  -16.49356   10.16020
      H1     2.38036  -17.03859   10.94699
       H     5.63654  -13.01632   13.97961
       O     5.30634  -13.38312   14.79861
      H1     4.40708  -13.10253   14.92205
       H     6.85409  -13.40961   17.61337
       O     6.76246  -14.03206   16.88165
      H1     6.37789  -13.58132   16.17870
       H     5.56676  -17.64968   14.38786
       O     6.16976  -16.92176   14.43524
      H1     5.67039  -16.13870   14.27739
       H    -2.04098  -18.71494   13.16361
       O    -2.62563  -19.14578   12.53080
      H1    -2.61845  -20.08449   12.73258
       H     2.79912  -18.43737   17.52124
       O     2.09505  -18.82157   16.95822
      H1     2.44889  -19.63622   16.54761
       H    -0.39918  -19.82332   14.96775
       O    -1.04499  -19.96722   15.67253
      H1    -1.72880  -19.25875   15.71079
       H     1.74588  -13.42368   10.28963
       O     2.58412  -13.85761    9.92172
      H1     2.98777  -13.37221    9.16427
       H     4.47914  -15.93219   12.27095
       O     3.87302  -16.42771   12.87915
      H1     3.78893  -17.34693   12.54505
       H    -0.01572  -15.91049   10.47069
       O    -0.82451  -15.53950   10.82672
      H1    -0.78186  -14.58858   10.83918
       H     1.58850  -13.39764   15.75777
       O     1.34048  -12.58619   16.24086
      H1     2.10528  -12.04355   16.29628

