114
frame 11 | Written by MDAnalysis XYZWriter (release 2.4.3)
       H   -15.31494   14.43437    3.89038
       O   -15.43864   14.69592    4.83637
      H1   -15.92728   15.54514    4.73896
       H   -17.18973   13.80660    4.82492
       O   -17.90933   13.43632    4.33394
      H1   -17.46844   12.75363    3.77110
       H   -12.87692   17.81634    0.19374
       O   -13.22989   18.50199    0.76761
      H1   -12.64572   19.26444    0.50670
       H   -12.73838   15.18631    0.18308
       O   -12.73283   15.95249   -0.40319
      H1   -13.18615   15.57807   -1.17763
       H    -8.00549   19.37537    2.26896
       O    -8.14569   18.60887    1.69813
      H1    -9.06796   18.40148    1.69318
       H   -10.11560   17.08032    7.36731
       O    -9.97411   16.15863    7.71152
      H1    -9.96908   15.59737    6.92871
       H   -18.98552   19.05013    5.41270
       O   -18.58653   19.85571    5.73352
      H1   -18.34397   19.65157    6.60717
       H   -11.69406   19.44403   -4.73789
       O   -11.42153   18.78694   -5.33667
      H1   -11.78271   19.06600   -6.16219
       H   -11.28255   18.89420    7.29803
       O   -10.36041   18.66438    7.18636
      H1   -10.06676   19.23761    6.45658
       H   -13.41929   15.76301   -3.47533
       O   -14.08393   15.45823   -2.81819
      H1   -14.91638   15.92805   -2.94969
       H   -14.86638   17.78113    2.38451
       O   -15.35414   18.42647    2.96375
      H1   -16.25769   18.24450    2.75409
       H    -6.41372   17.39621   -2.73887
       O    -6.96219   18.16795   -2.62705
      H1    -6.46247   18.71461   -1.93891
       H   -19.43456   18.92725    0.08587
       O   -18.96979   19.45429    0.75193
      H1   -19.69526   19.79600    1.28065
       H    -8.50042   17.77037    4.67729
       O    -8.04151   18.62830    4.95292
      H1    -7.72002   18.63500    5.82018
       H   -11.82075   18.10574    1.98819
       O   -10.90799   18.36330    2.30337
      H1   -10.60148   17.74233    2.93778
       H   -11.40874   15.68869   -4.37315
       O   -12.21774   16.22210   -4.53334
      H1   -11.87156   17.13773   -4.57871
       H   -16.07824   17.73398   -2.07738
       O   -16.49438   16.87046   -2.31269
      H1   -16.90039   16.91810   -3.17389
       H   -18.26422   18.30198    2.27981
       O   -18.11801   17.56976    2.91771
      H1   -18.75244   16.88519    2.69053
       H   -19.10943   14.39285   -0.08277
       O   -18.81195   13.74116    0.55470
      H1   -19.09121   14.06796    1.39795
       H   -15.69555   19.80476   -0.82194
       O   -15.14399   19.13896   -1.28540
      H1   -14.58007   18.95576   -0.50427
       H   -14.38418   13.75840   -2.27378
       O   -13.98521   12.97457   -1.86419
      H1   -14.65376   12.29903   -1.68692
       H   -16.23203   17.68200    5.53512
       O   -16.95880   17.07956    5.30791
      H1   -17.17180   17.27030    4.35592
       H    -9.71377   15.81437    3.90808
       O    -9.97390   16.66532    4.31436
      H1   -10.82789   16.61288    4.73677
       H    -7.82333   15.43950   -2.61670
       O    -7.23477   14.76800   -2.21047
      H1    -7.63782   13.95154   -2.54517
       H    -9.77916   14.81011   -1.43335
       O    -9.95759   14.93523   -0.50673
      H1   -10.57870   15.68555   -0.53365
       H   -11.51704   11.06148   -1.67488
       O   -11.79955   11.43229   -2.51929
      H1   -12.47124   12.10925   -2.27884
       H    -8.86904   16.07044   -4.22206
       O    -8.97600   16.31939   -3.27198
      H1    -8.39292   17.14940   -3.15738
       H   -16.02610   14.74677    1.15660
       O   -15.49955   14.43479    1.87932
      H1   -15.68565   13.48883    1.87051
       H   -10.13634   13.55353    4.12308
       O    -9.63400   13.76214    3.29009
      H1   -10.29793   13.85893    2.62755
       H   -18.68224   16.95731   -4.16587
       O   -17.82638   17.25452   -4.51040
      H1   -17.85196   16.97430   -5.38352
       H   -14.75504   17.92910    7.34984
       O   -14.60648   18.22431    6.44856
      H1   -13.90714   17.59032    6.18617
       H    -6.23087   17.19696    0.67463
       O    -5.37236   17.23573    1.12342
      H1    -5.02348   18.06296    0.90252
       H   -12.45874   11.65049    0.82388
       O   -13.22393   11.99080    1.31112
      H1   -13.97437   11.73550    0.80156
       H    -8.35422   15.94566   -0.40630
       O    -7.87950   16.74600   -0.24454
      H1    -8.17471   17.09761    0.60916
       H   -12.87194   15.59274    6.55060
       O   -12.95650   16.12730    5.70508
      H1   -13.27636   15.51032    5.08277
       H   -18.18214   16.00541   -1.64480
       O   -18.80866   15.30592   -1.81865
      H1   -19.72469   15.63165   -1.77249
       H   -10.79693   12.79279   -2.93467
       O   -10.22107   13.50853   -3.27171
      H1    -9.49319   13.02937   -3.71220
       H   -12.32874   13.40871    1.23477
       O   -11.66274   14.14317    1.44464
      H1   -11.12106   14.26051    0.58530

