114
frame 11 | Written by MDAnalysis XYZWriter (release 2.4.3)
       H     6.08620   -8.63785    1.70271
       O     5.87189   -7.92839    1.06144
      H1     5.23755   -8.41363    0.43790
       H     3.48823   -4.49722   -5.24959
       O     4.23700   -4.96167   -5.66507
      H1     3.90304   -5.86308   -5.87204
       H    10.21183  -13.22533   -2.66776
       O     9.77339  -12.35818   -2.62244
      H1    10.33150  -11.72243   -3.13507
       H    13.47481   -9.22114   -0.56684
       O    13.03727   -8.81215   -1.41757
      H1    12.99329   -9.58419   -2.04941
       H     8.75510  -13.04681   -4.12700
       O     8.29555  -13.89637   -4.27874
      H1     8.38320  -14.15419   -5.23898
       H     9.92084  -10.26903   -4.22330
       O    10.74680  -10.76593   -4.35210
      H1    11.04296  -10.39958   -5.20361
       H     7.04210   -6.58864   -0.08042
       O     7.29312   -6.01884   -0.83559
      H1     8.02190   -5.47657   -0.49420
       H     6.76070  -11.31402    1.96068
       O     7.33331  -11.94458    1.50394
      H1     8.07592  -11.35815    1.26195
       H     4.27263   -6.19855   -3.24795
       O     3.92703   -6.80310   -2.58789
      H1     3.33200   -7.37666   -3.14848
       H     9.40097   -9.77496   -0.62569
       O     9.30277  -10.76138   -0.43077
      H1     9.39787  -11.22755   -1.30865
       H     5.20808  -13.42813   -9.02687
       O     5.72166  -12.99033   -8.34622
      H1     5.02776  -12.84100   -7.71799
       H     7.79733   -6.96987   -7.43060
       O     7.07261   -6.34931   -7.60478
      H1     7.47470   -5.76984   -8.29358
       H     6.06080  -12.99895   -1.20755
       O     5.57743  -12.29299   -0.75309
      H1     6.20458  -12.07965    0.02776
       H     3.78576  -11.19529   -6.20154
       O     3.52353  -11.86578   -6.86049
      H1     3.43732  -12.57301   -6.21315
       H     7.03842  -14.18063   -2.95848
       O     6.55556  -14.29325   -2.08452
      H1     5.74125  -14.69382   -2.44830
       H    11.79050   -7.54446   -1.63101
       O    11.31700   -6.69547   -1.77402
      H1    11.06030   -6.68896   -2.68704
       H     9.62990   -4.65030   -6.55594
       O    10.43599   -5.18604   -6.45539
      H1    10.23087   -5.98120   -6.86631
       H     4.29965   -8.19734   -6.71152
       O     3.54734   -7.70831   -6.50394
      H1     2.79773   -8.06897   -7.04737
       H     8.82027  -11.09259   -8.54496
       O     9.35096  -11.87002   -8.44132
      H1     8.87931  -12.56111   -9.01849
       H    13.07560   -7.08798   -5.43307
       O    12.15333   -7.33723   -5.35568
      H1    12.05202   -7.89456   -6.13644
       H    10.28049   -5.29308   -0.23110
       O     9.53067   -4.94689    0.28629
      H1     9.52460   -5.60435    1.03016
       H     9.82259   -8.41376   -7.29869
       O     9.53010   -7.62834   -7.77267
      H1     9.98225   -7.59718   -8.59466
       H     6.48749   -5.53296   -2.72178
       O     5.85958   -4.98846   -3.24443
      H1     6.31677   -4.91590   -4.09313
       H     6.57599  -11.30421   -8.82401
       O     6.93555  -10.47647   -8.69495
      H1     6.80283   -9.98973   -9.50972
       H     5.23887   -9.43990   -1.46253
       O     4.45445   -9.06177   -1.04555
      H1     4.43520   -8.13407   -1.22549
       H     9.80143   -7.35160   -1.21364
       O     9.20853   -8.01635   -0.81669
      H1     8.34542   -7.65551   -1.05613
       H     4.87743   -9.90788   -5.31443
       O     4.14191  -10.29294   -4.81929
      H1     3.63000   -9.52829   -4.53687
       H    11.86631   -9.60609   -7.51819
       O    11.06177   -9.93559   -7.16956
      H1    10.80450  -10.63751   -7.82812
       H    11.76629   -3.15231   -4.03075
       O    12.10752   -3.70377   -4.74138
      H1    11.40122   -4.25466   -5.00487
       H     9.31971  -12.85176    0.35277
       O     9.64075  -13.74557    0.20945
      H1    10.32461  -13.60048   -0.49870
       H     6.46507   -9.74235   -7.29513
       O     6.20102   -9.27115   -6.46920
      H1     6.96310   -9.18216   -5.96941
       H     8.66166   -8.44605   -4.01225
       O     8.31553   -9.25520   -4.29242
      H1     7.87450   -9.62113   -3.50241
       H     5.69691   -6.79165   -8.88870
       O     5.45568   -6.91245   -9.81144
      H1     6.16317   -7.36411  -10.28097
       H     7.81861  -15.15534   -7.16513
       O     8.65631  -14.85990   -6.78216
      H1     8.86716  -13.95175   -7.08759
       H    12.60178  -12.00095   -2.51890
       O    12.80080  -11.11224   -2.82384
      H1    12.05162  -10.90993   -3.42830
       H     7.24209   -5.16948   -6.10172
       O     7.73575   -4.75221   -5.35556
      H1     7.27784   -3.97244   -5.08462
       H    10.54050   -7.48744   -4.52643
       O     9.77975   -7.07016   -4.09044
      H1     9.48935   -6.33700   -4.63733
       H     6.90286  -10.98958   -1.79619
       O     6.83273  -10.41799   -2.50930
      H1     6.21063  -10.74065   -3.11572

