114
frame 1 | Written by MDAnalysis XYZWriter (release 2.4.3)
       H    -1.35804    9.81857    8.75902
       O    -2.32581    9.94014    8.93918
      H1    -2.71785    9.03075    8.83605
       H    -2.30851   13.00814    3.58600
       O    -2.51210   13.88851    3.22436
      H1    -3.38861   13.80912    2.81266
       H    -7.58005   16.25908    5.42282
       O    -8.44545   16.45124    5.10978
      H1    -8.56603   15.80979    4.41756
       H    -3.48143   10.05382    0.10994
       O    -3.39936    9.21067   -0.41433
      H1    -4.30258    8.93363   -0.69495
       H    -7.83753   12.27804    6.68721
       O    -7.77871   13.13192    7.07901
      H1    -8.60748   13.57411    6.88271
       H    -2.33487   16.65741    3.59928
       O    -2.00558   16.91947    2.71618
      H1    -1.89719   17.88567    2.84386
       H    -5.92617   10.12674   10.66301
       O    -5.97998   10.95096   11.14334
      H1    -5.87698   10.70716   12.07354
       H    -2.55135   14.03731    8.21264
       O    -3.23067   14.70757    8.10615
      H1    -3.09279   14.98754    7.11460
       H    -8.27716   13.50050    2.30875
       O    -7.42588   13.38732    1.88194
      H1    -7.69088   13.36852    1.00682
       H    -4.66379    8.76268    2.15264
       O    -4.15788    9.36508    2.74415
      H1    -4.54256   10.26081    2.77480
       H    -5.20408    8.38791    5.60433
       O    -5.72028    8.59013    4.76318
      H1    -5.00655    8.78961    4.04166
       H    -9.82407   11.98066   10.96329
       O    -9.86843   12.39581   10.09971
      H1    -8.96302   12.74238   10.01291
       H    -0.66815   14.59724    2.67937
       O     0.26720   14.62764    2.55974
      H1     0.57248   15.45835    2.88000
       H    -4.33713   11.44870   11.31950
       O    -3.36689   11.41527   11.34996
      H1    -3.10287   10.79135   10.63948
       H    -5.89991   14.69233    2.22940
       O    -4.98899   14.99931    1.97847
      H1    -5.10098   15.94089    1.69763
       H    -5.25982   12.51946    3.54296
       O    -5.32677   11.78064    2.90261
      H1    -6.10974   12.05677    2.43437
       H   -10.29903   15.89663    7.70874
       O   -10.05086   15.36786    6.93902
      H1    -9.50892   15.94135    6.37369
       H    -2.47479   17.24140   10.38826
       O    -1.83163   16.85567    9.76106
      H1    -2.36301   16.25001    9.31317
       H    -1.36571   12.27567    7.58066
       O    -0.96768   12.83170    8.29760
      H1    -0.50780   13.43766    7.77363
       H   -10.12309   13.92641    3.44190
       O    -9.36277   14.57800    3.40209
      H1    -9.62979   15.05520    2.59621
       H    -1.06148    8.29057    3.88603
       O    -1.36807    8.67972    3.07328
      H1    -2.31237    8.65939    3.12957
       H    -1.64373   10.97412    4.96430
       O    -1.18677   11.16894    4.17291
      H1    -1.29753   10.29374    3.65712
       H   -11.29569   11.98223    3.24168
       O   -11.29449   12.51813    4.04397
      H1   -10.78697   11.96553    4.71302
       H    -5.64356    8.17945    8.95491
       O    -5.83884    8.38673    9.88562
      H1    -4.99686    8.01286   10.26217
       H    -4.32029   12.57798    0.84212
       O    -3.69506   12.12241    0.23732
      H1    -2.86639   12.62524    0.33577
       H    -7.33248    8.21852    4.23621
       O    -8.17754    8.24974    3.77175
      H1    -8.72635    7.49510    4.09099
       H    -2.74576   10.69530    7.40324
       O    -2.58658   11.32868    6.64060
      H1    -3.41464   11.75923    6.39496
       H     0.52620   11.77190    4.00760
       O     1.33593   12.32042    3.94449
      H1     0.97825   13.13318    3.46070
       H     0.00257   17.57988    5.28868
       O    -0.86053   17.60855    5.81344
      H1    -1.47360   16.84730    5.63897
       H    -7.33424   12.94743    8.71907
       O    -7.14727   13.06447    9.67642
      H1    -6.98881   12.13302   10.03116
       H    -4.85311   15.13257    8.56953
       O    -5.69731   15.64076    8.74953
      H1    -6.39019   15.04922    9.03728
       H   -10.30885   10.98170    6.98764
       O   -10.12331   10.79944    6.06139
      H1   -10.29806    9.83174    6.12227
       H    -5.74464   17.03530    5.72303
       O    -5.64510   16.09277    6.00867
      H1    -5.85262   16.09102    6.94398
       H    -7.29630   10.35714    5.10535
       O    -7.31210   10.66610    6.02250
      H1    -8.26661   10.63041    6.14865
       H    -4.50435    6.32887    2.94927
       O    -5.29176    6.15220    3.53160
      H1    -5.36096    6.92454    4.14568
       H    -3.83361   15.96904    5.43223
       O    -2.91875   15.72151    5.30767
      H1    -2.85585   14.96535    4.63281
       H    -6.27224    7.50706    7.29849
       O    -5.41290    7.92771    7.34899
      H1    -4.91875    7.10255    7.42193
       H    -5.50548   13.29008    5.80215
       O    -4.97835   12.51813    5.54297
      H1    -5.50793   11.79296    5.82140

