114
frame 11 | Written by MDAnalysis XYZWriter (release 2.4.3)
       H     9.45645   17.87145   13.70117
       O    10.02924   17.59568   13.01476
      H1    10.91035   17.50278   13.37617
       H    14.00902   19.63688   11.97806
       O    14.12049   18.97995   12.66636
      H1    13.49474   18.24365   12.45287
       H    13.40961   17.85139   17.38399
       O    13.96511   17.89428   16.58360
      H1    14.36937   17.03321   16.36949
       H    16.44829   11.84673   12.92121
       O    16.94497   11.79459   13.76624
      H1    17.63193   12.47766   13.73610
       H    10.99100    9.66336   11.48951
       O    11.43191   10.45813   11.82833
      H1    11.87341   10.87534   11.07076
       H    12.92225   12.27193    9.47989
       O    12.01577   12.13150    9.19588
      H1    11.47486   12.72398    9.74849
       H    13.91433   17.27889    8.65718
       O    13.75671   17.95537    9.34675
      H1    14.56616   18.48709    9.48870
       H    14.57887   12.26534   11.63470
       O    15.36687   11.66475   11.43272
      H1    15.44084   11.56811   10.41288
       H     6.91333   14.42724   14.18597
       O     7.69468   14.85581   14.58854
      H1     8.11704   14.07172   14.94768
       H    14.08513    9.67215   13.73996
       O    13.15889    9.82047   14.00427
      H1    12.70774    9.80468   13.14399
       H     9.30292   16.28870   10.96834
       O    10.05114   16.06804   10.31112
      H1    10.84142   16.48992   10.74150
       H    15.32799   15.90456    9.62145
       O    16.20900   16.32511    9.61312
      H1    16.70900   15.98676   10.38777
       H    11.16660   14.26949   16.64088
       O    11.76109   13.72466   17.20210
      H1    12.22820   13.21857   16.54354
       H     9.14463   11.92860   15.46683
       O     8.48080   12.55553   15.74622
      H1     7.64056   12.00399   15.80575
       H    12.99326   15.97865    7.25896
       O    13.96260   15.95201    7.54718
      H1    14.42956   16.46744    6.88164
       H    17.05345   14.83441    8.10789
       O    16.68961   14.05677    7.68172
      H1    17.41801   13.43890    7.80106
       H    13.56122   13.60375    5.77226
       O    14.10871   12.85019    6.07247
      H1    14.11062   12.90871    7.07945
       H    19.73838   14.08589   13.40401
       O    19.01680   13.78789   13.97624
      H1    19.44985   13.96136   14.79927
       H    14.02884   12.56415   15.45451
       O    13.16515   12.20036   15.14651
      H1    13.34259   11.31707   14.85895
       H    10.86061    7.51448   10.93629
       O    10.68587    8.35045   10.44208
      H1     9.75024    8.54965   10.56885
       H     6.49401   12.13507   10.56604
       O     7.33496   11.67564   10.34156
      H1     7.86693   11.63962   11.14135
       H    15.57338   12.91102    8.38835
       O    15.12909   12.09122    8.61282
      H1    15.42889   11.49354    7.95321
       H     9.25834   12.05679   13.36984
       O     9.39583   12.15190   12.44321
      H1    10.13958   11.46111   12.41885
       H    11.66936   11.08255    7.17791
       O    12.12620   10.87088    6.34693
      H1    12.75504   11.55813    6.12581
       H    15.27486   15.70139   12.87956
       O    14.31472   15.70059   13.14174
      H1    13.95392   14.84764   12.76314
       H    17.08099   13.81785   18.61481
       O    16.60922   13.00021   18.63870
      H1    16.08875   13.04068   17.81552
       H    10.72569   14.56783   10.76420
       O    11.18942   13.80999   11.09539
      H1    10.43706   13.27688   11.39725
       H    18.46785   10.93217   11.56705
       O    18.17622   11.65194   10.90947
      H1    17.26336   11.72418   11.20836
       H    13.36788   16.51907   12.01360
       O    12.57285   16.96319   11.59457
      H1    12.96950   17.29876   10.75461
       H    14.97865   15.81374   14.63678
       O    15.33490   15.90438   15.55904
      H1    16.24574   16.25447   15.58058
       H    11.67003    7.44799   15.02569
       O    12.40938    7.30209   14.40867
      H1    12.65938    8.23243   14.17813
       H    15.98802   12.82666   15.32657
       O    15.58294   13.24675   16.08745
      H1    15.65844   14.20651   15.96048
       H    12.64370   13.41519   12.03865
       O    13.50727   13.33121   12.49092
      H1    13.37002   12.80945   13.28023
       H     9.85364   15.22827   14.63879
       O    10.69487   15.06473   15.15511
      H1    11.20752   15.84261   15.05009
       H    17.45526   15.99045   13.01865
       O    17.00541   15.29045   12.53916
      H1    17.46920   14.48466   12.81234
       H    15.74058    8.43317   12.99150
       O    15.71054    9.05729   13.76358
      H1    16.25321    9.79635   13.45272
       H    11.24971   11.42604   14.95152
       O    10.45006   10.93839   14.82829
      H1    10.67710   10.03406   15.11727
       H    11.28571   18.33559   15.24351
       O    11.85105   17.63137   14.92505
      H1    12.61689   17.64717   15.56541

