114
frame 11 | Written by MDAnalysis XYZWriter (release 2.4.3)
       H     8.27023   -0.05814    0.62983
       O     8.70101   -0.51324   -0.12451
      H1     9.25771   -1.23996    0.27667
       H     5.57360   -0.54559    2.88422
       O     6.53893   -0.66218    2.71057
      H1     6.58240   -1.42752    2.08174
       H     1.64514    3.26295    4.58680
       O     1.27313    3.81243    5.29762
      H1     2.00968    4.15040    5.80546
       H     6.92337    3.51825    4.52790
       O     6.81396    2.73250    5.03994
      H1     7.60310    2.55584    5.55173
       H     7.40275   -3.51404    0.64210
       O     6.86363   -3.18161    1.36633
      H1     6.01853   -2.95501    0.87897
       H     2.04458    4.88230    1.35523
       O     2.38979    4.00704    1.43220
      H1     1.82969    3.49735    0.83920
       H     0.69930    1.74829   -0.12803
       O     1.59885    2.04551   -0.28120
      H1     1.64447    2.58735   -1.05296
       H     2.61480    5.78001    7.66321
       O     2.84109    4.99962    7.12555
      H1     3.71767    4.68047    7.25627
       H     5.98162   -1.74299    5.91527
       O     5.17326   -1.25083    5.85372
      H1     5.17386   -0.70501    6.66013
       H     5.64288    3.28256    6.35463
       O     5.04342    3.30340    7.10160
      H1     5.46628    3.93378    7.64791
       H     9.11277   -2.35246    4.10869
       O     9.04316   -1.45804    3.79692
      H1     8.17504   -1.42831    3.43861
       H     7.52499    7.79011    4.80271
       O     7.53487    6.95953    5.28951
      H1     8.44171    6.55824    5.21952
       H     0.47367    6.88747    0.93937
       O     1.34081    6.46548    0.96296
      H1     1.84575    7.21532    1.28899
       H     7.58822    2.93803    0.38929
       O     7.29936    3.80189   -0.01818
      H1     6.41954    4.10384    0.32293
       H     4.64623    5.69447   -2.43504
       O     4.43026    4.79712   -2.19117
      H1     4.46385    4.87564   -1.22232
       H     6.50560    0.10591   -2.30258
       O     5.56658    0.03243   -2.53029
      H1     5.18539    0.33934   -1.70027
       H     2.25507    4.49764   -2.35770
       O     1.56815    3.76754   -2.37249
      H1     1.59598    3.43998   -3.28057
       H     4.36160    8.19386   -0.83030
       O     3.90420    8.51097   -1.60537
      H1     3.25539    7.84589   -1.87723
       H     9.61293    5.40979    3.90037
       O     9.95946    5.79436    4.70366
      H1    10.06234    5.04795    5.35473
       H     3.89109   -1.09512    4.56411
       O     3.39768   -0.85570    3.77225
      H1     2.78789   -1.57994    3.54226
       H     7.29271    5.55153    3.89779
       O     6.82623    4.95924    3.29172
      H1     7.47123    4.92410    2.51500
       H     5.67887    7.95415    1.03064
       O     4.86340    7.45416    0.87807
      H1     4.26759    7.66689    1.60967
       H     4.43370    2.21282    2.88872
       O     4.64956    2.04967    1.95625
      H1     5.07112    2.87231    1.58695
       H     2.80601    8.24269    3.25288
       O     2.67958    8.53366    2.32888
      H1     2.06628    9.24354    2.33586
       H    10.29838    3.30399    1.84643
       O    10.44358    2.38718    1.55194
      H1    10.76612    2.51796    0.63816
       H     5.28461    1.74358   -3.23617
       O     5.43889    2.53693   -3.75400
      H1     5.19568    3.32503   -3.17596
       H     8.77860    2.83589   -2.79981
       O     8.99096    3.51334   -2.13151
      H1     8.13481    3.62613   -1.67245
       H     3.99175    4.39084    1.11682
       O     4.86717    4.75013    0.68691
      H1     4.76977    5.72353    0.64941
       H     6.13028    7.84524   -2.43448
       O     6.09706    6.95922   -2.83158
      H1     6.17720    7.16135   -3.76495
       H     4.44883   -1.26503    0.02106
       O     4.64452   -2.22254   -0.07124
      H1     4.49986   -2.37519   -1.05222
       H     0.68762    6.61109    3.29923
       O    -0.06322    7.07842    3.65518
      H1    -0.22284    6.73671    4.52946
       H    -0.12748    0.70838    5.76532
       O     0.39277    0.26502    5.13617
      H1     0.96608    0.84908    4.64721
       H     2.44570    2.11950    2.73249
       O     2.26470    1.71081    3.57680
      H1     2.44460    0.75987    3.50376
       H     8.67971    0.29349   -3.66142
       O     8.41003   -0.54113   -3.12927
      H1     8.48450   -0.27021   -2.19862
       H     4.27877    1.06575    0.52903
       O     4.07331    0.54183   -0.27666
      H1     3.27231    0.95415   -0.54860
       H     3.25700    7.86086    5.72504
       O     3.81110    7.77051    4.91079
      H1     4.38708    6.99842    5.03243
       H     8.67553    5.16434    0.80091
       O     9.30803    5.18284    1.57526
      H1     9.69587    6.05268    1.59640
       H     8.49679    1.51212    1.83600
       O     7.71099    1.41173    1.30118
      H1     7.09348    0.94332    1.84572

