114
frame 10 | Written by MDAnalysis XYZWriter (release 2.4.3)
       H     7.95187   16.65947    2.30805
       O     7.98628   16.86375    3.24956
      H1     7.16609   17.37185    3.46655
       H     2.09567   16.41296    1.35585
       O     1.37230   16.80818    1.85367
      H1     0.49664   16.54974    1.46150
       H     7.17418   17.39365    8.06136
       O     7.06862   16.43419    7.80098
      H1     6.21476   16.36967    7.32961
       H     7.29656    9.86635    4.10516
       O     7.88805    9.11781    3.92844
      H1     7.79113    8.93528    2.96238
       H     5.85266   11.65772   -1.07984
       O     5.41284   10.81930   -1.38626
      H1     6.13221   10.18882   -1.50610
       H     2.68245   17.91087    5.25911
       O     2.09296   18.39572    5.93447
      H1     2.65059   19.18413    6.17982
       H     7.50725    9.05304    0.56965
       O     7.59485    8.24114    1.06948
      H1     8.45969    7.92292    0.87950
       H     1.73518   15.14225    7.01510
       O     2.18564   15.87600    7.38375
      H1     2.00645   16.64341    6.87279
       H     1.72339   16.51254   -1.40074
       O     1.48553   15.68588   -1.07092
      H1     0.74952   15.81462   -0.47314
       H     3.99588   15.61263    1.72813
       O     3.78580   15.89987    0.82426
      H1     4.41274   16.55450    0.60031
       H     3.37365   11.92869    6.27356
       O     2.70972   11.42960    6.78137
      H1     3.06827   11.43866    7.66937
       H     8.88658   14.65568   -0.39698
       O     8.91787   14.06264   -1.17086
      H1     9.36738   13.26951   -0.88955
       H     0.44033   13.77866    6.05687
       O     0.75208   13.52533    6.95699
      H1     1.33167   12.78635    6.85203
       H    -0.27315   14.27826    3.86339
       O     0.35858   14.58629    4.51431
      H1     0.01341   15.52630    4.72580
       H     0.45113   12.80759    0.93776
       O     0.96775   12.06513    0.55762
      H1     1.48644   12.48852   -0.15575
       H    10.09208   10.38280    5.53253
       O    10.31745   10.30235    4.59395
      H1     9.53842    9.96321    4.22460
       H     5.19202   17.66672   -1.22771
       O     4.92199   18.47404   -1.69695
      H1     3.95673   18.34995   -1.76204
       H     5.67543    7.84844    0.80602
       O     4.78925    7.59361    0.51508
      H1     4.29173    7.87132    1.30143
       H     8.96070   14.26804    5.29132
       O     9.39786   13.51974    4.91119
      H1    10.32854   13.66115    4.70570
       H     3.66036    8.29838    3.15646
       O     2.98878    8.63665    2.57639
      H1     3.14760    9.59907    2.65964
       H     8.16844   16.18680    6.41452
       O     8.80283   16.11517    5.73317
      H1     8.38315   16.38426    4.87047
       H     5.21903   18.05350    3.96108
       O     5.93930   17.79317    4.58310
      H1     5.54472   17.07237    5.15072
       H     5.74053   10.82854    3.63711
       O     5.56816   10.82454    4.56927
      H1     5.18267    9.94175    4.61019
       H     2.19101   11.22931    2.83653
       O     2.94398   11.53676    2.32344
      H1     2.61057   11.72251    1.41656
       H     4.61535   13.35620    5.05789
       O     5.12807   13.21537    5.94893
      H1     5.33885   12.26785    5.79384
       H     3.25492   15.17534   -1.80544
       O     4.14283   14.84237   -2.09567
      H1     4.08863   14.87449   -3.05066
       H     2.10140   16.45182    3.66676
       O     2.93999   16.63145    4.23527
      H1     3.46868   15.83345    4.22688
       H     8.01953   12.29860    6.47020
       O     7.88122   11.41300    6.77913
      H1     8.61805   11.34044    7.38489
       H     5.19532   15.01120    6.31045
       O     4.99206   15.97008    6.33877
      H1     4.01828   15.98383    6.44887
       H     1.21972   20.02510    1.71354
       O     1.13387   19.38239    1.05541
      H1     1.30794   18.51751    1.45072
       H     0.79874    9.94231    4.18612
       O     0.71104   10.91509    4.16218
      H1    -0.21059   11.05860    3.87786
       H    11.00018   12.31044    0.40533
       O    10.07304   12.04762    0.47438
      H1     9.90707   11.33451   -0.16948
       H     6.73959   11.67309    1.86329
       O     6.02995   10.95911    1.72895
      H1     5.43536   11.34338    1.08486
       H     3.68790   11.77354   -1.07615
       O     2.92197   12.33254   -1.14026
      H1     3.27659   13.21681   -1.31317
       H     5.73447   13.90517   -1.24310
       O     6.35298   13.29945   -0.76378
      H1     7.22616   13.67582   -0.91610
       H    10.18947   15.31434    1.72125
       O     9.27080   15.15597    1.44592
      H1     8.98114   14.34593    1.86263
       H     8.86270   12.36283    3.24722
       O     8.25505   12.25529    2.50864
      H1     8.77267   11.84344    1.81785
       H     5.00720   13.81281    2.68907
       O     4.30439   13.72262    3.27803
      H1     3.91373   12.89510    2.96606

