114
frame 2 | Written by MDAnalysis XYZWriter (release 2.4.3)
       H    18.96625  -11.76897   13.49394
       O    19.40763  -12.48386   13.04572
      H1    19.40766  -13.29771   13.63469
       H    17.89621  -11.64047   15.13213
       O    17.75455  -12.36695   15.70477
      H1    16.88019  -12.13096   16.16957
       H    18.97833  -14.37968   16.87912
       O    18.41841  -15.10307   16.48045
      H1    18.73404  -15.90056   16.96125
       H    17.66340   -2.15272   18.56401
       O    16.73067   -2.30320   18.39802
      H1    16.55897   -3.15562   18.77794
       H    12.27413  -12.97486   15.38791
       O    11.55184  -12.98800   16.05551
      H1    10.82499  -13.25803   15.52341
       H    14.73626   -7.35266   11.88314
       O    14.08227   -7.38671   11.14869
      H1    14.29299   -6.74156   10.44467
       H    13.73121  -11.39512   14.92787
       O    13.28052  -10.55919   14.73344
      H1    12.64735  -10.85998   14.07596
       H    15.56817  -13.10156   17.20425
       O    15.31693  -12.36911   16.68631
      H1    15.28214  -11.67504   17.31848
       H    10.77961   -8.66524   15.85002
       O    10.42957   -8.23071   15.09991
      H1     9.60436   -7.77375   15.40469
       H    13.25732   -6.66413   15.74258
       O    12.71359   -6.01340   15.23034
      H1    12.18856   -6.58590   14.67331
       H    12.40675  -10.17433   16.16715
       O    11.93343   -9.89759   16.94709
      H1    11.83724  -10.69641   17.49269
       H    12.99703   -9.25682   18.35214
       O    13.59431   -8.92337   19.03073
      H1    13.51548   -7.96686   18.93916
       H    19.29279   -1.28022   18.73758
       O    19.35308   -2.20902   19.03076
      H1    19.59296   -2.66883   18.24137
       H    11.16039  -12.41676   18.94973
       O    12.02179  -12.15657   18.61334
      H1    12.05169  -12.62675   17.76010
       H    15.41771   -8.56891   16.32025
       O    14.78913   -8.44919   15.60995
      H1    14.50404   -9.39240   15.47820
       H    12.65986   -5.36421   20.04571
       O    13.03996   -6.04180   19.44457
      H1    13.93223   -5.72663   19.16702
       H    19.80260  -15.72267   13.48707
       O    19.88968  -14.98612   14.12326
      H1    19.31314  -15.12831   14.87924
       H     9.91193   -6.06897   17.08908
       O    10.56425   -5.42758   17.36259
      H1    11.40494   -5.50945   16.82826
       H    14.43164  -14.03240   14.51624
       O    13.68495  -13.68642   14.09378
      H1    14.11148  -13.10083   13.42449
       H    16.63398   -9.79272   18.80434
       O    16.09005   -9.54169   18.07485
      H1    15.30082   -9.11910   18.43852
       H    11.92057  -16.17443   17.21469
       O    12.44978  -15.79394   16.45253
      H1    11.95490  -15.02403   16.23783
       H    19.77307   -4.37028   15.99675
       O    19.78885   -3.56608   16.50174
      H1    19.06539   -3.06975   16.08811
       H    15.50776   -7.69228   14.13996
       O    15.97453   -7.23411   13.39932
      H1    16.12518   -6.33504   13.76267
       H    11.83757  -16.26136   19.12066
       O    11.53132  -17.06419   18.55655
      H1    12.24664  -17.71361   18.71431
       H    16.09610  -14.28429   19.02357
       O    15.67757  -14.62387   18.20991
      H1    14.72814  -14.68076   18.40285
       H    12.93299   -3.82389   16.61238
       O    13.70717   -3.38990   17.06480
      H1    14.07703   -2.79660   16.43013
       H    13.72270  -10.78483   12.34856
       O    13.39828  -11.60518   11.99987
      H1    13.69604  -11.70658   11.05777
       H    16.89918  -13.90111   14.81221
       O    16.16435  -14.57192   14.86837
      H1    16.37076  -15.02002   15.71332
       H    16.04862   -5.73377   17.41624
       O    15.47023   -5.31171   18.07963
      H1    15.15834   -4.51688   17.59595
       H    17.80007   -9.59369   14.27939
       O    17.94533  -10.19067   13.55747
      H1    17.29849   -9.99314   12.80066
       H     9.17976   -9.47399   16.68826
       O     8.94258  -10.40955   16.68749
      H1     9.80113  -10.80618   16.64768
       H    17.69320   -6.67152   15.69116
       O    17.33930   -5.82199   16.01409
      H1    17.91739   -5.53649   16.71100
       H    18.55659   -7.25202   11.08570
       O    18.45760   -6.49999   11.69222
      H1    17.91505   -6.74723   12.45942
       H    18.88290   -7.52608   14.82053
       O    18.39253   -8.15526   15.29502
      H1    18.74655   -8.27393   16.21465
       H    16.88350   -4.80081   14.71941
       O    16.53957   -4.65970   13.79628
      H1    16.64604   -3.74689   13.53389
       H    15.76443  -11.24209   11.20975
       O    16.20059  -10.37189   11.29306
      H1    16.12270   -9.97367   10.41303
       H    19.48582   -6.31706   17.99028
       O    18.82246   -5.78785   18.48506
      H1    18.49557   -6.27121   19.28651
       H    15.46625  -17.23774   16.13876
       O    15.93538  -17.13693   17.00244
      H1    15.59650  -16.33219   17.36432

