114
frame 11 | Written by MDAnalysis XYZWriter (release 2.4.3)
       H    -8.74220   18.16139   -7.17378
       O    -8.73523   18.24618   -6.19167
      H1    -9.60652   18.54340   -5.90535
       H    -8.17257   11.48904  -12.87574
       O    -8.66981   12.24787  -13.26863
      H1    -9.22857   12.48120  -12.48103
       H    -5.22762   14.10963  -10.58786
       O    -4.70455   13.33963  -10.65765
      H1    -4.60974   13.07677  -11.54981
       H    -5.64020   16.46771  -16.89515
       O    -5.44158   16.00847  -16.11322
      H1    -4.48779   15.95683  -15.99646
       H    -2.34091   16.17673  -12.79853
       O    -2.83101   16.90729  -13.13269
      H1    -2.43097   17.13587  -14.00142
       H    -4.12234   18.26297  -13.60372
       O    -4.59611   19.13040  -13.76499
      H1    -5.41358   19.01146  -13.31793
       H    -5.42878   19.38686  -15.60808
       O    -5.22250   19.79589  -16.45206
      H1    -5.94963   19.55854  -17.04681
       H   -11.69406   19.44403   -4.73789
       O   -11.42153   18.78694   -5.33667
      H1   -11.78271   19.06600   -6.16219
       H   -10.61683   16.38424  -10.09415
       O   -11.25247   16.64852  -10.80873
      H1   -10.68428   17.26586  -11.35767
       H    -1.65581   18.37499  -10.25340
       O    -1.72918   17.92321   -9.40174
      H1    -2.65505   17.70131   -9.26644
       H    -6.25775   14.10505  -16.31726
       O    -6.57759   13.29158  -16.70424
      H1    -6.07864   12.57965  -16.23774
       H    -0.98775   17.69295  -15.25122
       O    -1.87666   17.67444  -15.70006
      H1    -1.70850   17.67814  -16.63607
       H    -2.96427   13.42507  -14.41818
       O    -2.08353   13.38443  -14.85838
      H1    -1.42687   12.85387  -14.32077
       H   -11.88206   15.50517  -14.58488
       O   -12.01418   14.53883  -14.50734
      H1   -11.16357   14.18787  -14.73341
       H    -7.44336   15.31626  -11.40725
       O    -8.23292   15.84126  -11.30623
      H1    -8.20715   16.24757  -10.43341
       H    -9.76513   18.11026  -13.37987
       O    -9.50970   17.98414  -12.46262
      H1    -9.00570   17.17613  -12.52491
       H    -8.69326   18.51764   -9.68470
       O    -8.46658   17.93805   -8.94067
      H1    -9.14170   17.24402   -8.94663
       H    -9.97180   15.71218   -7.53246
       O   -10.47139   15.99788   -8.29324
      H1   -11.35209   16.06367   -7.95348
       H    -4.65810   12.09076  -13.87699
       O    -4.44531   12.92308  -13.46323
      H1    -5.28863   13.34949  -13.53453
       H    -8.70287   16.45368   -5.96667
       O    -8.81071   15.46312   -5.81753
      H1    -7.94258   15.07784   -5.89958
       H    -6.29748   19.26573  -11.37932
       O    -7.04569   19.44007  -11.99578
      H1    -7.53441   18.54407  -12.12057
       H    -6.58720   16.66602  -14.70879
       O    -7.27199   16.54383  -14.07176
      H1    -7.94100   16.06792  -14.56356
       H    -7.22702   17.32948  -19.21821
       O    -7.14586   17.18242  -18.29429
      H1    -7.96094   16.72445  -18.08310
       H    -6.50585   15.18480   -8.67277
       O    -6.10525   15.45064   -9.55146
      H1    -5.44781   16.09694   -9.14285
       H    -6.47804   13.62107   -6.70106
       O    -6.32564   14.59758   -6.81568
      H1    -5.82010   14.91303   -6.05640
       H    -9.72219   15.29004  -15.93831
       O    -9.28298   14.89095  -15.11980
      H1    -9.15981   13.95154  -15.27219
       H   -10.34925   16.05783  -18.19297
       O    -9.59459   15.77794  -17.68971
      H1    -9.17432   15.10667  -18.25672
       H   -10.09461   12.83345   -9.52076
       O   -10.05029   12.57832   -8.52505
      H1   -10.94326   12.75938   -8.20612
       H    -4.32459   18.01473  -17.56025
       O    -3.68538   17.74027  -18.20477
      H1    -3.26111   18.56504  -18.54489
       H    -7.57553   13.59394  -13.04603
       O    -6.74309   14.15161  -13.02748
      H1    -6.90959   15.04297  -13.40657
       H   -11.48588   16.80206  -15.77323
       O   -11.72315   17.22649  -14.93515
      H1   -12.61636   17.64750  -15.06022
       H   -10.86796   18.80316  -15.05559
       O   -10.49349   19.64388  -15.37606
      H1   -10.85135   20.29345  -14.71891
       H   -11.11144   19.98845  -10.55964
       O   -11.75454   19.37439  -10.19702
      H1   -11.52102   18.60193  -10.67256
       H   -12.34533   14.33733  -12.98427
       O   -12.42717   14.13856  -12.02598
      H1   -12.24709   14.95108  -11.50831
       H   -14.55266   17.80526  -15.75481
       O   -14.10875   18.37169  -15.07448
      H1   -14.54289   18.10508  -14.24932
       H    -1.22820   14.76511   -9.41717
       O    -0.84741   15.45980   -9.95740
      H1    -1.25208   16.32869   -9.77586
       H   -10.93384   13.74230  -11.60468
       O   -10.07547   13.59514  -11.19477
      H1    -9.56993   14.43724  -11.29012
       H    -4.68484   18.54364   -9.12016
       O    -4.42766   17.64425   -8.77116
      H1    -4.80309   17.56654   -7.91045

