114
frame 9 | Written by MDAnalysis XYZWriter (release 2.4.3)
       H    -6.59910   -8.21602    4.30605
       O    -6.33513   -7.63418    5.07476
      H1    -7.18691   -7.51902    5.53439
       H    -7.74641   -7.59124    9.57648
       O    -8.68375   -7.73950    9.61388
      H1    -8.94238   -8.60494    9.90676
       H    -6.67485   -4.29993    5.84976
       O    -7.57006   -3.90023    5.71530
      H1    -7.41151   -3.07405    5.25683
       H   -12.79541   -7.65600    9.22935
       O   -13.59281   -8.21073    9.45277
      H1   -14.39921   -7.70549    9.25546
       H    -8.53371  -11.85756    6.18855
       O    -9.06604  -11.68961    5.37226
      H1    -9.85624  -12.25004    5.47111
       H    -9.91130  -10.62047    9.90749
       O    -9.11490  -10.22164   10.25461
      H1    -8.50765  -10.61468    9.62177
       H    -9.01835  -10.66003   12.48816
       O    -8.48639  -11.07700   13.19254
      H1    -7.56577  -10.98000   12.89574
       H   -11.78077   -9.65307   12.24500
       O   -11.63209  -10.64713   12.16195
      H1   -12.34587  -10.75061   11.50437
       H   -10.21534   -5.32614    8.27350
       O    -9.63933   -4.65202    7.92645
      H1    -9.28956   -4.98876    7.10917
       H    -6.87627   -4.43574   11.41365
       O    -6.70577   -4.54803   12.40055
      H1    -6.59807   -3.72321   12.78737
       H    -7.73357   -4.32795    8.84665
       O    -7.10717   -3.89041    9.46924
      H1    -6.23701   -4.22942    9.17590
       H    -3.31625   -7.70238   10.83097
       O    -2.51129   -7.24395   10.35189
      H1    -2.62139   -6.28645   10.26548
       H   -10.68911   -3.57795    7.34934
       O   -11.36760   -2.92580    6.96845
      H1   -11.10205   -2.67251    6.06934
       H    -7.16753   -7.64637   15.72397
       O    -7.25222   -6.67609   15.67363
      H1    -7.83776   -6.47266   14.91460
       H    -5.52860   -7.80517    9.66926
       O    -6.00909   -7.28349    8.96521
      H1    -5.69892   -7.72819    8.12490
       H   -11.10780   -7.44372   11.27288
       O   -11.39602   -7.91711   12.03028
      H1   -11.83942   -7.27578   12.63553
       H    -9.21777  -10.01043    5.08819
       O    -9.52041   -9.09806    5.09571
      H1    -9.62684   -8.78940    4.11653
       H   -14.27542  -11.17214   10.84880
       O   -13.70980  -10.94920   10.07546
      H1   -13.85062  -10.02134    9.79760
       H    -5.62753  -11.45174   11.74189
       O    -5.81900  -10.70422   12.31965
      H1    -5.27586  -10.69266   13.10872
       H   -14.52462   -7.83951    6.07977
       O   -13.77936   -8.36314    6.45222
      H1   -13.88929   -8.33699    7.37793
       H    -8.86993   -6.25613   12.78368
       O    -9.25516   -6.39172   13.71599
      H1    -9.63989   -5.57345   13.80742
       H   -10.88947   -7.09065    6.30852
       O   -11.70160   -6.50194    6.29671
      H1   -12.38405   -7.17441    6.20148
       H    -6.78731  -10.02370   15.18344
       O    -7.22246   -9.35722   15.76034
      H1    -8.04958   -9.15842   15.30712
       H    -3.85900   -9.06169    6.50672
       O    -4.79169   -9.12360    6.76931
      H1    -5.37138   -8.66575    6.14421
       H   -11.65015   -4.73871   13.57314
       O   -11.16209   -3.89654   13.74192
      H1   -10.73972   -3.58275   12.94705
       H    -4.56794   -4.78358    7.84146
       O    -4.71709   -4.94476    8.80261
      H1    -5.23718   -5.77461    8.92293
       H    -5.48849   -9.14829   11.65565
       O    -5.15925   -8.29706   11.32278
      H1    -5.39191   -7.62799   11.94741
       H   -11.74062   -6.43593    7.92542
       O   -11.47481   -6.37127    8.83548
      H1   -12.18663   -5.76825    9.15832
       H    -8.73105   -1.78262    7.94774
       O    -7.86174   -1.47572    8.15006
      H1    -7.39719   -2.37110    8.22199
       H   -10.13558   -8.65120   14.00233
       O   -10.05073   -9.33037   14.70896
      H1    -9.70804  -10.10311   14.22526
       H    -4.73964   -3.88927    5.79927
       O    -5.12333   -4.74653    6.04361
      H1    -5.03890   -5.44280    5.36786
       H    -8.65690   -2.75353   11.29151
       O    -9.42714   -2.28306   11.72623
      H1    -9.69446   -1.59795   11.06958
       H    -7.59411  -12.64853    7.97747
       O    -7.60942  -11.69455    7.78701
      H1    -6.73193  -11.53240    7.41232
       H    -8.97885   -7.51654    7.87478
       O    -8.82542   -7.26834    6.93346
      H1    -9.15527   -7.99999    6.45881
       H    -2.92147  -11.38519    8.15829
       O    -3.84792  -11.41287    8.28503
      H1    -4.26645  -10.59344    7.98334
       H    -5.37535   -5.60451   13.29491
       O    -4.45953   -5.92232   13.30689
      H1    -4.39330   -6.52016   14.06397
       H   -12.55746   -3.23058    9.88513
       O   -12.65522   -3.83954    9.14598
      H1   -12.09884   -3.47154    8.47452
       H   -15.12840   -8.59344   12.65602
       O   -14.96672   -7.84509   12.04628
      H1   -14.23892   -8.08930   11.43627

