114
frame 11 | Written by MDAnalysis XYZWriter (release 2.4.3)
       H    -1.95609   -2.84688  -15.03469
       O    -1.49936   -3.64624  -15.27551
      H1    -0.84740   -3.83371  -14.53700
       H     7.91904    1.38251  -16.99761
       O     7.06597    1.24888  -17.42375
      H1     7.23235    0.48238  -17.91800
       H     0.78684    2.86725  -13.12992
       O     0.31603    3.66580  -13.06614
      H1    -0.56642    3.45658  -13.37047
       H    -1.78401   -0.35489  -15.33933
       O    -2.28526   -1.06708  -14.80789
      H1    -2.49582   -0.65883  -13.97562
       H    -0.18031    5.15338  -17.20272
       O     0.64341    5.33848  -17.72006
      H1     0.85857    6.26646  -17.34270
       H     4.77951   -0.13271   -9.15813
       O     5.44775    0.14037   -9.75320
      H1     5.03967    0.81428  -10.39302
       H     4.82886    2.78458  -14.27699
       O     4.31024    1.95216  -14.24732
      H1     4.90021    1.20388  -14.42500
       H     2.48863   -0.59531  -13.60242
       O     2.15725   -0.46052  -14.48438
      H1     2.56058    0.33063  -14.81042
       H     4.48693    5.21739  -14.33746
       O     5.33578    4.70321  -14.42445
      H1     5.97508    5.15513  -13.84469
       H     6.54026   -3.28060  -13.02824
       O     6.54716   -2.57319  -13.69647
      H1     5.67956   -2.64168  -14.22743
       H     2.71643   -1.37712  -10.90240
       O     3.14396   -2.06779  -11.38383
      H1     3.19245   -2.87872  -10.91181
       H     3.34424    6.21677  -15.41218
       O     2.82280    5.93786  -14.60556
      H1     2.37236    5.09061  -14.86684
       H    -0.52055   -5.76463  -17.27658
       O    -0.49314   -4.81831  -17.56807
      H1    -0.72717   -4.38705  -16.75982
       H     2.12761    5.30353  -11.49618
       O     1.31923    5.31924  -10.98772
      H1     0.63289    4.84988  -11.46093
       H     0.80702    1.49838   -9.67247
       O     1.56456    1.10446  -10.13793
      H1     2.27290    1.76777  -10.22016
       H     6.64786   -0.74675  -15.04662
       O     5.96391   -0.21009  -15.46895
      H1     6.32067    0.54334  -15.95480
       H     4.40478    2.05435  -12.34841
       O     4.18257    2.13627  -11.39904
      H1     4.11898    3.04924  -11.20430
       H     6.24500    4.77499  -15.86571
       O     6.72617    4.34264  -16.57426
      H1     6.43556    3.43014  -16.48821
       H     0.14285    0.19991  -18.67880
       O     0.98410    0.26599  -18.22899
      H1     0.91619   -0.22604  -17.44136
       H    -1.81296    1.64553  -12.21782
       O    -1.57302    1.10760  -13.00678
      H1    -0.97803    0.42498  -12.75937
       H    -1.80482    3.19703  -16.16073
       O    -1.35334    4.02305  -15.92569
      H1    -0.46924    3.71211  -15.69842
       H     0.73692   -0.33999  -11.28856
       O     0.26705   -0.74625  -12.06130
      H1    -0.17532   -1.61948  -11.74870
       H     8.37880    0.90778  -12.87547
       O     7.79550    1.59787  -13.16057
      H1     8.22692    2.44553  -12.85510
       H     2.26120   -4.99251  -19.17517
       O     1.73516   -4.20296  -19.01338
      H1     1.37131   -4.36019  -18.17532
       H     0.29414    1.45290  -15.27708
       O    -0.68471    1.27394  -15.40207
      H1    -1.07269    1.22650  -14.50173
       H    -2.43157    1.37706  -16.91432
       O    -2.70764    1.76200  -17.75030
      H1    -3.59857    2.11208  -17.64540
       H     1.26714   -1.24356  -15.68111
       O     0.97011   -1.96405  -16.24394
      H1     0.09450   -2.26266  -15.95126
       H     3.90022    4.41097  -17.75998
       O     3.09481    3.93074  -18.00417
      H1     2.34464    4.58808  -17.88587
       H     4.39680   -4.35834  -14.39078
       O     5.09247   -5.02778  -14.52377
      H1     4.61194   -5.84307  -14.53136
       H     5.37596   -2.84678  -18.66712
       O     5.81856   -2.82538  -17.81467
      H1     5.53565   -3.64129  -17.38789
       H    -0.52691   -3.16410  -10.83323
       O    -0.94102   -3.06713  -11.71112
      H1    -0.35045   -3.62150  -12.21986
       H     2.73788    2.31201  -15.35304
       O     1.80672    2.19280  -15.61049
      H1     1.78434    2.23969  -16.55862
       H     3.27402   -4.67946  -16.49479
       O     2.45638   -4.55590  -16.01652
      H1     1.96422   -3.76972  -16.33506
       H     6.64576   -0.78638  -10.77058
       O     7.29474   -1.30862  -11.22550
      H1     6.96514   -1.53490  -12.07173
       H     3.00611   -2.19226  -14.34530
       O     3.60526   -2.80621  -13.93503
      H1     3.62675   -2.45100  -12.99150
       H     0.14886   -5.54032  -13.54151
       O     0.46368   -4.60513  -13.71465
      H1     1.28637   -4.69249  -14.19773
       H     7.05563   -1.84977  -18.44145
       O     7.46672   -1.10601  -18.92455
      H1     8.36616   -1.36176  -19.14630
       H     1.50181   -0.18227   -9.03681
       O     1.64523   -0.76499   -8.28619
      H1     1.23957   -1.58357   -8.48600

