114
frame 8 | Written by MDAnalysis XYZWriter (release 2.4.3)
       H    -8.89033  -10.82311  -10.35740
       O    -8.62982  -10.16038  -11.02076
      H1    -7.66690  -10.10600  -10.79929
       H   -11.20757  -10.86995  -13.21139
       O   -11.39069  -11.39048  -13.98090
      H1   -10.61540  -11.90139  -14.16424
       H   -13.29323   -5.49588  -12.15037
       O   -13.14972   -5.39241  -11.21242
      H1   -12.62096   -4.55419  -11.16404
       H    -9.89285  -13.91571  -12.08510
       O   -10.41755  -13.53100  -11.34533
      H1   -10.84247  -14.33766  -11.01805
       H   -12.93140   -9.55246  -14.07008
       O   -13.47519   -8.91019  -13.56151
      H1   -14.20847   -9.46583  -13.23623
       H   -10.93783   -7.76763   -5.32525
       O   -11.21629   -7.51258   -4.40114
      H1   -11.63666   -6.62637   -4.40065
       H    -8.50097   -5.01209  -10.56914
       O    -8.72634   -5.81773  -10.11134
      H1    -9.47321   -6.13938  -10.60285
       H    -9.92433  -12.62602   -9.81353
       O    -9.59658  -12.17715   -8.98926
      H1    -9.71711  -12.87759   -8.32197
       H    -9.83524  -15.62565   -8.06543
       O    -9.65323  -14.65514   -7.84074
      H1    -9.46698  -14.63497   -6.88446
       H   -16.44623  -14.41868  -11.88657
       O   -16.31053  -13.67800  -12.46584
      H1   -15.37417  -13.52516  -12.57740
       H   -13.26355   -8.37401   -9.61987
       O   -13.89889   -7.64268   -9.40458
      H1   -13.62315   -6.92559   -9.99089
       H   -14.25705   -8.07401   -7.19946
       O   -15.00620   -8.05349   -6.60250
      H1   -15.53506   -7.28143   -6.73414
       H   -10.30424   -6.52232  -13.29422
       O   -10.32814   -6.45913  -12.29457
      H1   -11.20350   -6.04691  -12.16100
       H   -15.93688  -10.95779  -11.72399
       O   -15.85298  -10.21475  -12.26396
      H1   -15.78168   -9.52202  -11.66161
       H    -9.99138   -9.59346  -11.83421
       O   -10.97115   -9.48224  -11.82106
      H1   -11.07851   -8.67238  -12.33929
       H   -14.90176   -8.83767   -4.31407
       O   -14.46670   -8.10556   -3.88832
      H1   -14.39017   -7.48229   -4.59064
       H    -7.82339   -7.97419   -8.99683
       O    -7.74107   -8.23201   -8.04068
      H1    -7.57634   -7.46141   -7.52520
       H    -9.96649   -6.04795   -9.11557
       O   -10.81306   -6.30355   -8.74021
      H1   -10.53655   -7.05792   -8.12696
       H   -10.31199   -9.83084   -6.00213
       O   -10.01308  -10.29932   -5.16398
      H1   -10.80469  -10.46529   -4.69636
       H    -9.40603  -15.01363   -5.09223
       O    -9.61801  -14.01427   -4.99339
      H1   -10.42418  -13.97575   -4.50749
       H   -10.85099   -8.79657   -7.89596
       O   -10.42868   -8.47188   -7.05909
      H1    -9.50165   -8.56614   -7.26194
       H   -15.92887  -10.53218   -5.63041
       O   -15.74379  -10.53802   -4.66815
      H1   -16.43791   -9.99064   -4.20159
       H    -8.56694  -10.95953   -4.19257
       O    -7.76614  -10.81714   -3.67761
      H1    -7.77211  -11.50871   -3.05423
       H   -12.89526  -13.06341  -13.05824
       O   -13.57040  -13.73432  -12.74843
      H1   -13.28629  -14.62121  -13.00794
       H   -12.64700   -9.61741   -3.81918
       O   -12.26308  -10.53882   -3.72826
      H1   -13.00576  -11.13250   -3.80494
       H   -15.05062   -7.39150  -10.60617
       O   -15.61513   -6.74332  -11.12980
      H1   -16.47556   -7.22136  -11.22640
       H   -14.98242  -12.15397   -4.10470
       O   -14.30155  -12.73700   -3.62848
      H1   -14.57308  -12.73582   -2.69908
       H    -7.31500  -13.61788  -10.21910
       O    -7.48916  -14.34132   -9.63379
      H1    -8.29654  -14.19784   -9.18025
       H   -12.75148  -13.17344   -7.55725
       O   -12.30486  -14.05898   -7.57931
      H1   -11.30335  -13.77840   -7.60607
       H   -11.54710   -9.81500  -10.05716
       O   -11.75198   -9.64419   -9.12054
      H1   -12.28327  -10.43176   -8.81987
       H   -13.73230  -12.10680   -8.90845
       O   -13.37871  -11.52533   -8.24549
      H1   -14.15914  -11.24786   -7.70313
       H    -7.98616  -13.33236   -5.37411
       O    -7.11227  -13.30003   -5.78037
      H1    -7.18768  -12.62620   -6.40918
       H    -7.33576  -10.09958   -7.56587
       O    -7.37926  -11.00769   -7.81501
      H1    -8.19399  -11.13373   -8.37262
       H   -13.86112  -14.04123  -10.59054
       O   -14.22330  -13.93191   -9.70320
      H1   -13.89167  -14.67364   -9.20830
       H   -16.70878  -11.10268   -7.10873
       O   -15.81995  -10.73948   -7.21199
      H1   -16.01972   -9.78336   -7.33082
       H   -12.39074  -13.13814   -3.35243
       O   -11.59061  -13.62624   -3.13337
      H1   -11.87653  -14.31348   -2.51018
       H   -14.19087  -15.70080   -4.71265
       O   -13.34492  -15.94544   -5.16169
      H1   -12.90263  -15.18801   -5.42449
       H   -10.75394   -5.06805   -7.44322
       O   -10.68746   -4.32073   -6.81997
      H1    -9.79349   -3.92769   -6.89549

