114
frame 9 | Written by MDAnalysis XYZWriter (release 2.4.3)
       H   -12.08867  -13.29661   13.30271
       O   -12.28053  -14.12771   12.79252
      H1   -13.22778  -14.28473   12.89408
       H   -12.96924   -6.30301   18.42632
       O   -13.57467   -7.00516   18.66504
      H1   -14.03308   -6.67694   19.42467
       H   -12.43029   -9.74753   17.76786
       O   -13.29405   -9.58142   18.10138
      H1   -13.25296   -8.69364   18.46797
       H    -9.37511  -13.21913   20.23217
       O   -10.02346  -13.18793   19.50327
      H1    -9.46819  -12.63809   18.90648
       H    -7.21230  -16.82161   19.22324
       O    -7.79353  -16.05506   19.11569
      H1    -7.65633  -15.70888   18.16996
       H   -14.04204   -9.35696   15.70131
       O   -14.26145  -10.22977   15.45123
      H1   -14.23889  -10.73562   16.31844
       H   -11.09595   -4.59790   17.88445
       O   -11.64959   -5.00448   18.56181
      H1   -10.99777   -5.74918   18.77710
       H   -11.81615  -16.06316   19.76474
       O   -11.56538  -15.68481   18.90836
      H1   -10.99238  -14.91409   19.09794
       H   -10.29530   -8.52105   17.57964
       O   -10.49417   -9.45124   17.38402
      H1   -10.60985   -9.43271   16.45991
       H    -8.77500  -14.28245   16.70348
       O    -7.92529  -14.70847   16.72067
      H1    -7.42568  -14.28318   16.08722
       H   -13.82339  -12.49735   18.32619
       O   -14.13826  -12.70478   17.42418
      H1   -13.54121  -13.35456   16.95916
       H    -9.01835  -10.66003   12.48816
       O    -8.48639  -11.07700   13.19254
      H1    -7.56577  -10.98000   12.89574
       H   -11.78077   -9.65307   12.24500
       O   -11.63209  -10.64713   12.16195
      H1   -12.34587  -10.75061   11.50437
       H    -7.51879  -12.76732   14.73572
       O    -6.78190  -13.41148   14.78475
      H1    -6.90738  -14.05526   14.04784
       H    -3.71433  -14.63829   17.76154
       O    -4.27683  -15.29662   18.20561
      H1    -4.45291  -14.92578   19.06082
       H   -12.90969  -11.52237   14.93219
       O   -12.19884  -12.09218   14.56248
      H1   -11.89536  -11.51103   13.80106
       H   -12.42710  -15.28420   15.96853
       O   -13.03729  -15.11366   16.68755
      H1   -12.48533  -15.22754   17.46915
       H    -7.16753   -7.64637   15.72397
       O    -7.25222   -6.67609   15.67363
      H1    -7.83776   -6.47266   14.91460
       H    -4.93439  -10.99639   15.59667
       O    -4.63644  -10.33382   14.93559
      H1    -3.80145  -10.69156   14.62745
       H    -6.83521   -7.62421   18.69215
       O    -6.45650   -8.50757   18.42350
      H1    -6.87291   -8.78740   17.61873
       H    -8.34263  -16.04196   15.44540
       O    -8.91214  -16.65894   14.91820
      H1    -8.27515  -17.32385   14.52172
       H   -11.10780   -7.44372   11.27288
       O   -11.39602   -7.91711   12.03028
      H1   -11.83942   -7.27578   12.63553
       H    -5.62753  -11.45174   11.74189
       O    -5.81900  -10.70422   12.31965
      H1    -5.27586  -10.69266   13.10872
       H   -10.79822  -12.77495   15.48542
       O   -10.07411  -12.83810   16.12955
      H1    -9.95972  -11.97103   16.48630
       H    -2.86345   -8.65175   18.01149
       O    -3.55088   -8.89517   18.62477
      H1    -4.37386   -8.55940   18.19862
       H    -8.86993   -6.25613   12.78368
       O    -9.25516   -6.39172   13.71599
      H1    -9.63989   -5.57345   13.80742
       H    -6.78731  -10.02370   15.18344
       O    -7.22246   -9.35722   15.76034
      H1    -8.04958   -9.15842   15.30712
       H   -16.30993   -9.15226   17.89321
       O   -16.10038  -10.03023   18.17933
      H1   -15.15413  -10.07777   17.92149
       H   -14.07064   -7.33048   16.70379
       O   -14.26658   -7.22872   15.73012
      H1   -15.22832   -7.07483   15.65866
       H    -9.60916   -3.08295   16.36177
       O   -10.08457   -3.91868   16.57517
      H1   -10.43355   -4.14787   15.66084
       H   -10.13558   -8.65120   14.00233
       O   -10.05073   -9.33037   14.70896
      H1    -9.70804  -10.10311   14.22526
       H    -8.85234   -4.78575   17.48487
       O    -8.09855   -5.32235   17.88227
      H1    -7.56323   -5.68782   17.18552
       H    -9.78391   -7.58975   19.63928
       O    -9.99324   -7.09036   18.83280
      H1    -9.16170   -6.58236   18.55984
       H    -5.37825  -12.17075   17.76544
       O    -5.99094  -11.96435   17.03543
      H1    -5.97621  -12.80339   16.50852
       H    -4.73858   -6.72815   16.46913
       O    -4.39513   -7.37935   15.72882
      H1    -5.00427   -8.11249   15.79278
       H    -4.08624   -5.47145   17.78403
       O    -5.00670   -5.56668   17.46004
      H1    -5.39671   -4.68346   17.27363
       H    -8.89595  -10.33189   17.67047
       O    -8.44028  -11.14724   17.96351
      H1    -7.70869  -11.25393   17.34845
       H   -13.20427   -6.44403   14.62111
       O   -12.79388   -6.03055   13.83697
      H1   -13.71010   -5.76469   13.48661

