114
frame 7 | Written by MDAnalysis XYZWriter (release 2.4.3)
       H     5.62795  -19.14222  -15.00783
       O     4.78599  -19.26275  -14.48460
      H1     4.46766  -20.07408  -14.90828
       H     6.89791   -7.98032  -12.67229
       O     6.52469   -8.86806  -12.60347
      H1     7.22707   -9.47098  -12.83459
       H    11.18066  -19.47455  -17.14221
       O    10.62207  -19.32582  -16.30249
      H1    10.40322  -18.36885  -16.30928
       H     5.67194  -17.40016  -16.40602
       O     6.01618  -16.52288  -16.45048
      H1     6.80548  -16.38187  -15.94252
       H     5.68530  -13.89967  -12.62076
       O     4.69972  -13.73853  -12.57346
      H1     4.72284  -12.82636  -12.94279
       H     3.57118  -17.54172  -17.21090
       O     4.00131  -18.42000  -17.02712
      H1     3.96193  -18.64303  -16.12068
       H     4.05249  -11.29174  -15.09324
       O     3.73149  -11.36167  -16.03119
      H1     2.86405  -11.76067  -15.96811
       H     6.90764  -17.53674   -9.08625
       O     6.82756  -16.65499   -9.54518
      H1     6.12086  -16.79015  -10.20908
       H     9.72538  -13.61819  -18.53442
       O     9.55777  -12.93503  -17.79477
      H1     8.64220  -12.78161  -17.96977
       H    12.66900  -17.39605  -15.06912
       O    13.11158  -17.75074  -15.81358
      H1    13.46867  -18.64363  -15.63737
       H     9.31341  -10.11113  -14.01814
       O     9.77565   -9.75841  -14.82074
      H1     9.14156   -9.26274  -15.29218
       H     5.62442  -12.93815   -8.36754
       O     6.06220  -12.98326   -7.44987
      H1     5.42759  -12.87592   -6.71572
       H     1.42843  -15.80506  -15.37406
       O     1.97475  -15.15076  -15.86983
      H1     2.85356  -15.26770  -15.44099
       H     2.40260  -18.24032  -13.28959
       O     2.51167  -17.46343  -12.77278
      H1     3.11139  -16.93600  -13.30931
       H    11.76939  -12.80558   -9.34320
       O    10.89285  -12.66647   -9.76885
      H1    10.35485  -13.44842   -9.79614
       H     6.73694  -14.54436   -7.03160
       O     7.11153  -15.41675   -6.88671
      H1     6.97098  -15.83896   -7.72896
       H    10.68322  -13.22112  -16.56614
       O    11.46656  -13.33563  -15.97896
      H1    11.88505  -14.16909  -16.23246
       H     5.43758  -19.95378  -12.71355
       O     5.36229  -19.66604  -11.80336
      H1     5.10236  -18.75248  -11.88961
       H     7.56576  -18.23044  -16.60397
       O     7.28231  -19.14697  -16.33933
      H1     7.71521  -19.66216  -17.07075
       H     9.16765  -15.12680  -10.95042
       O     8.54279  -14.50874  -10.57571
      H1     8.10157  -14.96052   -9.85989
       H     7.09846  -19.55492  -10.19677
       O     6.93260  -19.41423   -9.29803
      H1     5.96826  -19.43382   -9.19480
       H     4.95009  -15.84143  -15.39356
       O     4.31286  -15.62483  -14.65506
      H1     4.69130  -14.84500  -14.29326
       H     3.60305  -12.49579  -18.89189
       O     4.35002  -12.78414  -18.33627
      H1     4.24755  -12.33141  -17.49895
       H     4.08776  -16.73320  -11.24705
       O     4.99497  -16.74569  -11.52526
      H1     4.92433  -16.16809  -12.29982
       H     5.52912  -10.44468  -13.26670
       O     4.89774  -11.13340  -13.41944
      H1     3.99250  -10.91665  -13.12800
       H    10.56162  -11.63243  -11.23960
       O    10.60202  -11.17016  -12.08242
      H1    11.28789  -11.56745  -12.62563
       H    12.52194  -12.82408  -14.07137
       O    13.08841  -13.10724  -13.33375
      H1    13.90217  -13.37668  -13.73114
       H    11.20828  -16.13056  -16.38346
       O    10.31082  -16.48476  -16.25646
      H1     9.91554  -16.63700  -17.18863
       H     9.74777  -18.90023   -9.42334
       O     9.99413  -18.72884  -10.39041
      H1    10.29919  -19.57003  -10.75525
       H     3.54432  -13.72936   -9.66804
       O     2.83540  -14.35215   -9.40990
      H1     2.01837  -13.85422   -9.65998
       H    11.74346  -16.18775  -13.09873
       O    12.45740  -15.88720  -13.66482
      H1    12.42796  -14.94701  -13.44371
       H     4.34718  -12.18356   -9.84519
       O     5.11318  -12.84955   -9.87333
      H1     5.11443  -13.07641  -10.83285
       H     7.55888  -14.65960  -13.62027
       O     7.21562  -14.14816  -12.89079
      H1     7.72510  -14.40061  -12.10555
       H     8.28149  -18.48410  -13.17390
       O     8.13070  -17.62482  -12.75871
      H1     7.51641  -17.76566  -12.04491
       H     8.24114  -11.48979  -12.72859
       O     7.78963  -11.15084  -13.47365
      H1     7.96566  -11.73583  -14.17237
       H     8.81147  -18.22637  -18.64076
       O     8.38173  -17.41517  -18.22173
      H1     7.65684  -17.34604  -18.85085
       H     8.66388  -15.73546  -15.53356
       O     7.90991  -15.61982  -14.91835
      H1     7.86748  -16.33658  -14.28474
       H    10.65307  -16.81174  -10.81376
       O    10.29529  -16.33828  -11.58332
      H1     9.65069  -16.94395  -11.94031

