114
frame 4 | Written by MDAnalysis XYZWriter (release 2.4.3)
       H     1.86746   10.35686   -1.10936
       O     1.94423    9.58727   -1.69657
      H1     2.32736    8.88239   -1.11751
       H     7.62356   12.54149   -2.20755
       O     6.71478   12.23262   -2.22768
      H1     6.81028   11.42663   -2.73000
       H     3.19178    4.46489    0.77218
       O     3.67608    3.87054    0.17752
      H1     2.95979    3.46133   -0.29957
       H     7.49327   10.31920    3.42533
       O     8.23870   10.62550    2.83969
      H1     7.91250   11.27871    2.25016
       H     2.96320    7.21500    6.05092
       O     2.61058    6.96933    5.20629
      H1     2.94845    6.09447    5.08627
       H    12.01610    6.45221   -1.72222
       O    12.07271    6.68032   -0.77340
      H1    11.28863    7.01899   -0.34342
       H     0.75771   12.68949   -0.21260
       O     1.34402   12.00816   -0.51820
      H1     2.21244   12.34795   -0.80622
       H     5.92640    5.27207    3.88853
       O     5.64459    4.62396    4.55676
      H1     5.73723    4.99335    5.47074
       H     7.74876    9.90198   -2.26984
       O     7.82440    9.35677   -3.01341
      H1     7.34052    9.79803   -3.70608
       H     9.22551    8.19181    4.82046
       O     8.95668    7.24854    4.68145
      H1     9.31083    7.00162    3.86715
       H     0.63439    6.19963    1.14754
       O     1.55165    6.26607    1.51648
      H1     1.65481    7.22281    1.65677
       H     5.28843    2.20873   -0.13737
       O     6.10522    2.39572   -0.64493
      H1     5.93910    3.02426   -1.37897
       H     9.11419   10.12385   -0.10486
       O     8.25447   10.39743   -0.37307
      H1     8.09819   11.16391    0.19326
       H     1.80448    4.75289   -2.62288
       O     2.11440    3.87666   -2.32981
      H1     1.55282    3.41669   -1.68646
       H     2.61259    6.86186    0.05037
       O     3.16879    7.08524   -0.64800
      H1     2.71944    7.10083   -1.50346
       H     7.31083    6.91955    3.71091
       O     6.56924    6.65803    3.12442
      H1     6.91195    6.38978    2.30156
       H     5.31159    8.04973    0.12069
       O     5.99195    8.45735    0.64745
      H1     6.06970    9.38748    0.43268
       H     8.05268    7.77883    0.23826
       O     8.91513    7.33385    0.04757
      H1     8.67412    6.40436    0.07296
       H     3.31583   10.56152   -4.30607
       O     3.69692   10.09867   -3.58731
      H1     2.99682    9.83683   -3.01489
       H     3.06913    8.97320    2.40758
       O     2.13918    8.99389    2.08157
      H1     1.96062    9.89974    2.21552
       H     4.21859   12.69966   -3.73977
       O     5.06482   12.84511   -4.21372
      H1     5.75238   12.59780   -3.59837
       H     5.86142   11.29354    4.02178
       O     6.14002   10.41532    4.37876
      H1     5.45191    9.71731    4.17673
       H     2.48208    6.05916   -3.92430
       O     1.88636    6.51007   -3.29219
      H1     1.30384    7.06282   -3.83763
       H    -1.10009    7.37228    1.04349
       O    -0.89647    6.78492    0.29423
      H1    -0.70560    7.42704   -0.43202
       H     2.23738   12.51947    2.63278
       O     2.68493   11.90532    1.99223
      H1     2.18584   12.02403    1.20668
       H     4.59845    7.32976   -5.08569
       O     5.16223    7.89211   -4.60370
      H1     4.66727    8.72438   -4.30335
       H     4.50343    4.47995   -1.85842
       O     5.28421    4.26168   -2.35659
      H1     5.78991    5.02720   -2.47135
       H     7.04483    7.80669   -2.38033
       O     6.48267    7.02333   -2.45409
      H1     6.09301    7.15521   -3.29162
       H     9.91977    7.09181    1.50003
       O    10.28055    6.48376    2.17456
      H1    11.13999    6.93615    2.48762
       H     0.72663    8.80251    3.36905
       O     0.49835    8.52076    4.26132
      H1     1.17692    7.96652    4.63674
       H     8.58410   12.81206    1.36915
       O     7.73423   12.58527    1.01641
      H1     7.50052   13.32613    0.39518
       H     4.26690   13.41352   -0.60904
       O     3.97565   12.77277   -1.28146
      H1     4.79686   12.48366   -1.71150
       H     3.97535    7.85847    4.34546
       O     4.64211    8.39146    3.81022
      H1     5.28449    7.75886    3.48951
       H     0.41450    8.70846   -1.98756
       O    -0.46271    8.33538   -2.13763
      H1    -1.20746    8.95446   -2.13307
       H    10.33144    7.60437   -3.60393
       O    10.28462    8.51581   -3.91311
      H1     9.47545    8.78721   -3.56452
       H     6.85789    4.60824    0.76348
       O     7.60411    5.17777    1.11161
      H1     8.27759    4.48205    1.05516
       H     9.74070    5.40448   -2.69131
       O     9.29362    6.12890   -3.15780
      H1     8.55718    6.41864   -2.63432
       H     5.68003   12.60918    1.96296
       O     5.12086   12.57962    2.77059
      H1     4.28669   12.27633    2.39480

