114
frame 5 | Written by MDAnalysis XYZWriter (release 2.4.3)
       H     9.53192   18.27628   11.83937
       O     8.79702   17.60975   11.70378
      H1     8.55944   17.46253   12.61691
       H    12.75389   20.12862   12.37720
       O    13.11626   19.60859   13.11886
      H1    12.98371   18.70929   12.83847
       H    11.19062   19.38644   15.58330
       O    11.16063   18.52930   15.12792
      H1    12.09827   18.24953   15.09609
       H    10.28674   13.38640   17.27656
       O     9.66666   13.47847   17.98705
      H1    10.22197   13.86221   18.62164
       H     7.47240   16.77550    8.30032
       O     7.72144   16.01467    8.85092
      H1     7.67327   15.23561    8.28756
       H    12.05710   13.33001   16.42468
       O    12.64014   13.70681   17.07673
      H1    13.08032   12.97073   17.44490
       H    12.46461   11.35855    9.07881
       O    11.62934   11.40844    9.60595
      H1    11.67061   12.30597    9.99359
       H    14.61058   17.23823    9.31865
       O    14.79073   17.10678   10.25685
      H1    15.53762   16.47549   10.22600
       H     3.63008   17.35205   12.81303
       O     2.67615   17.45421   12.90620
      H1     2.17291   16.65894   12.63938
       H     5.71906   17.55290   12.28065
       O     5.58444   16.76383   12.79544
      H1     5.71916   16.11265   12.08009
       H     6.97698   16.25835   13.82379
       O     7.77893   15.98829   14.36356
      H1     7.84241   14.98760   14.18220
       H     8.98620   19.86058    9.72676
       O     8.55718   19.10663    9.26973
      H1     8.11785   18.58714    9.94203
       H    10.24704   16.50140   10.54927
       O    11.16181   16.28691   10.24361
      H1    11.72647   16.45567   11.07145
       H    11.70934   17.58235    8.98607
       O    11.62368   18.39616    8.47299
      H1    10.68705   18.54955    8.41619
       H    10.81297   14.20581   15.18350
       O    10.69824   13.21376   15.24582
      H1    11.24898   12.91009   14.48869
       H    12.23165   19.26933   17.94689
       O    12.36918   18.37403   18.11496
      H1    11.45070   18.04826   18.20443
       H     9.05048   13.14075   14.32891
       O     8.23991   13.31228   13.75510
      H1     7.53830   12.85813   14.27661
       H    14.06288   18.37399    6.70038
       O    14.60485   17.76150    7.17792
      H1    15.60782   17.89805    6.98762
       H    10.20858   13.88058    6.19956
       O    10.42560   13.16858    5.60339
      H1    11.38810   12.98153    5.61805
       H     7.91037   18.70121    7.59366
       O     7.79927   18.09363    6.85375
      H1     7.10553   18.36256    6.24000
       H    17.03413   17.75995   14.84354
       O    16.46142   17.75830   15.59757
      H1    15.54596   17.45881   15.33178
       H     5.94678   13.35596   10.96125
       O     5.70802   12.43080   11.24075
      H1     4.83783   12.22796   10.85581
       H     9.17212   16.36321    7.21308
       O     9.66627   15.82594    6.60090
      H1     9.12585   15.61840    5.84558
       H    12.69296   19.32085    9.59991
       O    13.54792   19.58231   10.00600
      H1    13.96788   18.77301   10.39528
       H     3.34674   17.58491   15.81647
       O     3.90828   17.78744   16.60139
      H1     3.53187   17.13854   17.20384
       H     2.45771   14.84552   10.85332
       O     3.21198   14.85791   10.25169
      H1     2.96620   15.22530    9.40728
       H     8.82741   12.54948   12.21210
       O     9.32890   12.01075   11.62797
      H1     9.92441   11.48861   12.26187
       H    11.51746   19.34710    4.74900
       O    10.60692   19.49238    4.37760
      H1    10.18154   18.63719    4.44563
       H    15.21882   15.09874   13.14329
       O    14.42358   14.94634   13.66984
      H1    14.02160   14.09439   13.38083
       H    11.90151   17.72470    6.84164
       O    11.80501   17.40914    5.90095
      H1    11.14193   16.75388    6.06889
       H     7.20960   17.47640   15.80335
       O     7.49437   18.08686   16.46478
      H1     6.92442   17.88416   17.26585
       H     6.25253   15.65708    9.95640
       O     5.87323   15.14843   10.70996
      H1     4.90361   15.02966   10.56566
       H     9.98297   16.44025   17.25436
       O     9.79793   17.03666   17.99060
      H1     9.15611   17.59402   17.58193
       H    10.90648   14.56627   10.38588
       O    11.14183   13.81069   10.89408
      H1    10.34707   13.29964   11.18091
       H    13.06619   16.40169   12.71453
       O    12.84861   17.08949   12.09517
      H1    13.62757   17.15194   11.52142
       H    14.09250   16.21269   14.88979
       O    13.89723   17.09172   15.27488
      H1    13.90732   16.92167   16.24068
       H    11.97310   13.31486   12.23668
       O    12.37249   12.98405   13.04957
      H1    12.78998   12.21358   12.71542
       H     9.27953   15.87660   15.23572
       O    10.19066   15.88296   15.63466
      H1    10.59865   16.77805   15.48281

