114
frame 6 | Written by MDAnalysis XYZWriter (release 2.4.3)
       H    -0.82731    9.16774    9.32679
       O    -1.50430    9.71332    8.89003
      H1    -2.30741    9.42545    9.19708
       H   -11.01240    9.92487    3.45334
       O   -11.94393   10.11224    3.50784
      H1   -12.06028   10.91338    2.94716
       H    -9.41350    8.71838    7.55118
       O    -8.57339    8.37505    7.85369
      H1    -8.77602    7.73034    8.45725
       H   -13.70653    9.92711    6.54965
       O   -13.17601    9.44575    7.22853
      H1   -13.83317    9.18965    7.90612
       H   -11.18417    8.74949   10.09727
       O   -10.97308    7.84934    9.81184
      H1   -10.50081    7.46170   10.57343
       H    -9.06112    2.99493    6.15633
       O    -8.23964    2.76765    5.68452
      H1    -7.96145    1.93982    6.02561
       H   -10.08632    6.40611    5.52063
       O    -9.43260    6.66971    4.87903
      H1    -8.58204    6.45965    5.32374
       H   -10.42105    4.88636    7.21311
       O   -10.14183    4.10288    7.70124
      H1    -9.28255    4.32148    8.06802
       H    -8.71656    9.57438    9.51828
       O    -8.54735   10.36668   10.10364
      H1    -8.51050    9.97193   10.95623
       H   -11.49450    9.39988    6.29330
       O   -10.51700    9.41120    6.28859
      H1   -10.16148    9.26407    5.43967
       H    -6.70332    8.40254    2.04183
       O    -7.11454    8.18593    1.15942
      H1    -6.45785    8.31428    0.55670
       H    -7.66676    2.83436   10.34715
       O    -8.21158    2.26584   10.87322
      H1    -9.07493    2.74796   10.83079
       H    -4.66634    8.40107   10.02829
       O    -5.16687    7.93685    9.37782
      H1    -5.21310    8.59548    8.61564
       H    -8.93024    5.00296   12.77119
       O    -9.55615    5.40253   12.16525
      H1    -9.87111    4.69213   11.54857
       H    -3.69694    8.38687    1.67898
       O    -4.03808    8.93547    2.42129
      H1    -4.43120    9.66884    1.97522
       H    -6.35745    7.51983    4.76217
       O    -6.20696    7.85239    3.83683
      H1    -5.25461    8.13501    3.79568
       H   -11.39234    6.70555    7.63695
       O   -11.51578    6.37618    6.71666
      H1   -12.41823    6.59026    6.40761
       H    -7.89461    2.91209    3.89312
       O    -7.56571    3.10490    2.98231
      H1    -6.88553    3.72582    3.17687
       H    -7.63200    5.43312    9.41552
       O    -7.64783    4.72290    8.73694
      H1    -6.87746    4.84268    8.23838
       H    -1.46184    3.75222    3.63359
       O    -1.67823    4.67216    3.59856
      H1    -2.34074    4.89675    4.27876
       H    -4.83681    9.82213   12.03974
       O    -4.08779    9.62720   11.48619
      H1    -3.29969    9.71622   12.07228
       H   -10.46237    2.14741    7.56914
       O   -10.47995    1.25077    7.17579
      H1   -11.12313    0.71947    7.67173
       H    -6.39521    6.27246    6.60879
       O    -7.05980    6.86009    6.18244
      H1    -7.55121    7.13853    6.94453
       H    -5.06591    6.49505    8.26397
       O    -5.15258    5.68519    7.70929
      H1    -4.43063    5.58705    7.08225
       H   -11.39864    3.79453    9.96633
       O   -10.84599    3.40881   10.63508
      H1   -11.38251    2.95346   11.25928
       H    -4.53217    9.31742    6.41310
       O    -5.26551    9.54722    7.08662
      H1    -6.04406    9.21465    6.56990
       H    -8.36818    9.49748    3.84746
       O    -9.26813    9.16408    3.82559
      H1    -9.11399    8.21031    3.95405
       H    -7.92457    6.68908   11.30673
       O    -7.71329    6.93166   10.37780
      H1    -6.81237    7.26187   10.26793
       H   -12.08663   10.14367    8.73186
       O   -11.64076   10.37717    9.54385
      H1   -12.40925   10.40432   10.18370
       H    -9.76120    5.02134    3.59904
       O   -10.14476    4.39942    2.91978
      H1    -9.39271    3.78361    2.86487
       H    -6.21494   12.52255    9.47591
       O    -6.08778   11.55658    9.66484
      H1    -6.89217   11.09728    9.45102
       H    -9.60209   12.08638    8.08592
       O    -9.45167   12.14316    7.11590
      H1    -9.90979   11.30983    6.91253
       H    -4.70642    4.94661    4.28530
       O    -4.16738    4.77883    5.06575
      H1    -4.21862    3.83235    5.10111
       H    -6.12508   11.35470    7.12187
       O    -6.52476   12.19245    6.84101
      H1    -7.46447   12.05564    6.97416
       H    -4.85177    5.52316    2.27674
       O    -5.72443    5.41559    2.68515
      H1    -5.93611    6.39808    2.87380
       H   -10.42523    7.26324    2.10996
       O    -9.97251    7.57923    1.33763
      H1    -9.06055    7.27765    1.41497
       H    -2.32054    7.89481    5.92812
       O    -3.01701    8.44360    5.57959
      H1    -2.57345    9.27224    5.27370
       H    -3.65726   12.95681    5.48578
       O    -3.82907   11.99720    5.43991
      H1    -4.74649   11.98271    5.69689

