114
frame 5 | Written by MDAnalysis XYZWriter (release 2.4.3)
       H   -11.03493  -14.06310   14.27131
       O   -11.56136  -14.58371   13.68247
      H1   -12.38783  -14.12787   13.44382
       H   -11.71505   -7.33491   17.25001
       O   -12.65941   -7.47623   17.21614
      H1   -12.96174   -7.33256   18.10431
       H   -10.82634   -9.75090   16.82036
       O   -11.52505  -10.12051   17.42112
      H1   -12.12850   -9.41274   17.59661
       H   -13.62266  -11.15197   15.23419
       O   -13.23489  -11.65199   15.99253
      H1   -12.69855  -10.99978   16.52174
       H   -10.79052   -3.91735   16.59004
       O   -11.69673   -3.97926   16.93347
      H1   -12.11497   -3.98818   16.07639
       H   -11.55012  -14.56385   17.67405
       O   -10.84926  -13.94427   17.89730
      H1   -11.17617  -13.46307   18.69337
       H    -9.34836   -8.43260   16.34054
       O    -9.49584   -9.25619   15.90242
      H1    -9.54377   -9.16473   14.97539
       H    -9.38316   -5.21383   19.14006
       O   -10.25511   -4.79076   19.19857
      H1   -10.66591   -5.31796   18.53035
       H    -8.38747  -14.08805   15.93685
       O    -8.47618  -15.01859   16.01588
      H1    -7.91662  -15.26316   15.24204
       H   -14.85929  -12.32025   16.93439
       O   -15.69139  -12.80582   17.01345
      H1   -15.57254  -13.63097   16.49461
       H    -8.69648  -12.58986   12.06627
       O    -7.96536  -13.11891   12.25317
      H1    -7.44071  -13.10056   11.41029
       H   -10.29327  -10.91038   10.70237
       O    -9.99710  -11.51967   11.40100
      H1   -10.47015  -12.40258   11.22369
       H   -17.75952   -9.15695   14.06959
       O   -17.28392   -9.76732   14.64722
      H1   -16.36521   -9.68197   14.27343
       H   -11.45860  -11.91923   15.13833
       O   -10.78291  -11.97282   14.48104
      H1   -11.02370  -11.32771   13.86575
       H    -6.99617   -8.35777   14.97808
       O    -7.11207   -7.45910   14.67991
      H1    -7.58665   -7.51929   13.82074
       H    -5.27146  -13.29069   17.11678
       O    -4.95874  -12.41263   17.25999
      H1    -4.35596  -12.26820   16.50944
       H   -14.96652  -12.23671   12.67412
       O   -14.95975  -11.36801   12.25087
      H1   -15.79066  -11.28752   11.75487
       H    -6.44315   -8.47891   17.82045
       O    -6.50866   -8.92015   18.68956
      H1    -6.99702   -9.80416   18.62222
       H   -14.71814  -13.91562   12.61302
       O   -14.17931  -13.66281   13.34705
      H1   -14.59077  -14.06803   14.11082
       H   -14.03830   -8.25351   11.06796
       O   -14.63421   -8.33487   11.90395
      H1   -14.44837   -7.47702   12.31453
       H   -13.49803  -10.94107   11.08996
       O   -12.84105  -10.57098   10.53306
      H1   -13.15838   -9.70655   10.20735
       H    -5.44300  -11.72234   12.98248
       O    -5.62140  -10.76925   12.99195
      H1    -6.00343  -10.59622   13.90587
       H    -9.51200  -12.01000   15.77700
       O    -8.99875  -12.30747   16.59700
      H1    -9.61920  -12.81998   17.12824
       H    -7.93546   -6.99820   11.39116
       O    -8.43321   -6.93455   12.28511
      H1    -8.21468   -6.10709   12.71153
       H    -6.11029  -10.93666   16.25002
       O    -6.62057  -10.28520   15.80371
      H1    -7.53926  -10.40955   16.06219
       H   -15.35511   -7.78281   17.92342
       O   -15.67974   -8.55002   17.45034
      H1   -15.11735   -8.79234   16.71197
       H   -13.68616   -6.19348   16.69231
       O   -14.14900   -5.52270   16.19827
      H1   -15.00748   -5.90321   16.13068
       H   -16.73681   -7.32443   16.68214
       O   -16.73559   -6.50670   16.16371
      H1   -17.30892   -5.85295   16.60584
       H   -18.21140   -9.97560   18.69086
       O   -17.47771   -9.79981   19.27938
      H1   -16.86737   -9.37242   18.72224
       H   -10.96947   -5.93795   11.79310
       O   -11.68337   -5.53416   11.35002
      H1   -12.32915   -5.46180   12.04164
       H    -9.54817   -8.49201   12.72439
       O    -9.91974   -9.24085   13.17451
      H1    -9.92681   -9.96550   12.50917
       H    -8.52094   -4.60575   16.38648
       O    -7.91972   -5.36467   16.55001
      H1    -7.58262   -5.54218   15.65818
       H    -9.94752   -7.33370   18.42225
       O    -9.96809   -7.14325   17.49288
      H1    -9.14891   -6.64595   17.28123
       H    -6.12238  -14.02477   18.91794
       O    -6.17150  -14.65929   18.14994
      H1    -7.14974  -14.81423   18.20084
       H    -5.64222   -6.70888   15.35386
       O    -4.66981   -6.56427   15.58672
      H1    -4.73182   -6.27157   16.49121
       H    -7.91188  -11.78877   18.12825
       O    -7.68432  -11.46127   19.04528
      H1    -6.96037  -12.04601   19.25764
       H   -13.68776   -5.57625   14.31051
       O   -13.67602   -5.23457   13.39639
      H1   -14.54308   -4.89782   13.14740
       H   -14.26749  -10.19697   13.57000
       O   -14.09780   -9.71679   14.40735
      H1   -13.77197   -8.86536   14.02437

