114
frame 7 | Written by MDAnalysis XYZWriter (release 2.4.3)
       H    -2.82045  -15.05003  -10.42509
       O    -3.58232  -15.51448  -10.72997
      H1    -4.38128  -14.94923  -10.61356
       H    -7.64159   -8.36252  -17.64333
       O    -7.91671   -9.29721  -17.66568
      H1    -7.86862   -9.64629  -18.52516
       H    -5.17536  -11.51326  -15.23795
       O    -4.90524  -12.37206  -15.04305
      H1    -4.03340  -12.37101  -15.48697
       H    -7.25370  -12.01885  -11.18195
       O    -7.36533  -11.56977  -11.98026
      H1    -6.47983  -11.37690  -12.30140
       H    -1.18059  -11.31973  -12.06586
       O    -0.47911  -10.66938  -11.98469
      H1    -0.35570  -10.28334  -12.85510
       H    -3.70032  -16.87058  -13.90687
       O    -4.15566  -16.00964  -13.66702
      H1    -3.87746  -15.75996  -12.76469
       H    -0.76386   -6.33522  -10.14047
       O    -1.63388   -6.73131   -9.89017
      H1    -2.30627   -6.04260  -10.11521
       H    -9.03714  -13.98860  -11.83175
       O    -9.90114  -13.92523  -12.18019
      H1   -10.33779  -14.78882  -11.94805
       H    -1.92335  -10.86421  -17.09035
       O    -1.44662  -11.74079  -17.08939
      H1    -1.42699  -12.12478  -17.99432
       H    -7.16404  -15.44702  -11.96417
       O    -6.80327  -15.00538  -11.14950
      H1    -6.34923  -14.22486  -11.59091
       H    -8.34483   -5.87998  -10.93407
       O    -8.38851   -6.35984  -10.06472
      H1    -8.35871   -7.32017  -10.26367
       H    -7.94184   -9.43647  -15.89182
       O    -7.92820   -9.40352  -14.89570
      H1    -8.12479   -8.49444  -14.63428
       H    -5.76014  -15.37365  -14.76318
       O    -6.18328  -14.89937  -15.50709
      H1    -5.61055  -14.13945  -15.62075
       H    -4.90311  -10.13408  -12.84091
       O    -4.80776  -10.65222  -11.99607
      H1    -4.14223  -10.21141  -11.44596
       H    -5.25907  -13.25582  -12.95180
       O    -5.03073  -13.20769  -12.02177
      H1    -4.96274  -12.21924  -11.94490
       H    -9.01351  -10.74615  -12.06408
       O    -9.94977  -10.60441  -11.89801
      H1    -9.98838   -9.63991  -11.76562
       H    -7.45595   -9.56616  -11.06964
       O    -7.83704   -9.00345  -10.34856
      H1    -7.03221   -8.78378   -9.88273
       H    -2.86318  -12.81834  -17.61112
       O    -3.65491  -13.35040  -17.70493
      H1    -3.60310  -14.21687  -17.26148
       H    -2.56008  -12.71536   -9.90728
       O    -1.91559  -12.98639  -10.55920
      H1    -1.06541  -12.97427  -10.13893
       H    -6.36143   -6.86205  -17.00152
       O    -7.24581   -7.00932  -16.73369
      H1    -7.77769   -6.30361  -17.07485
       H    -3.42679   -9.37950  -17.27258
       O    -3.23422   -9.81859  -16.43510
      H1    -3.72089   -9.37015  -15.75315
       H     0.07721   -7.04977  -13.29502
       O     0.86567   -6.47963  -13.21869
      H1     1.51901   -6.90205  -13.81109
       H    -6.05560   -9.48665  -14.64812
       O    -5.17555   -9.33743  -14.35054
      H1    -5.04255   -8.39296  -14.07141
       H    -5.18737   -6.92920   -9.23359
       O    -5.71408   -7.61262   -8.88804
      H1    -5.43279   -7.84758   -8.00470
       H    -3.44769  -11.41126   -8.43782
       O    -4.07544  -12.04267   -8.79950
      H1    -4.91887  -11.58716   -8.64193
       H    -2.06315   -9.89619   -8.62197
       O    -1.60219  -10.54615   -8.13605
      H1    -1.80656  -10.28921   -7.17180
       H    -2.66237  -13.44074  -13.69289
       O    -2.02207  -13.02981  -13.16508
      H1    -2.36330  -13.07703  -12.25884
       H    -4.88567   -4.82573  -10.52501
       O    -4.52635   -5.64520  -10.80510
      H1    -4.78566   -5.76826  -11.73809
       H    -3.70899   -6.34147  -13.52872
       O    -4.65448   -6.49051  -13.39542
      H1    -5.23333   -5.97800  -13.98577
       H    -3.94738   -5.91758  -17.10817
       O    -4.67107   -6.51609  -17.43641
      H1    -4.25738   -7.26882  -17.81731
       H    -6.62584   -4.45625  -15.19716
       O    -6.80999   -5.24001  -14.64214
      H1    -6.90870   -5.94429  -15.30408
       H     0.77154  -12.82444  -14.11979
       O     0.63060  -13.28467  -13.24162
      H1    -0.34694  -13.08486  -13.19677
       H    -7.41355  -12.26624  -17.68418
       O    -8.19030  -12.02536  -17.14638
      H1    -8.23097  -11.09811  -17.28501
       H    -2.79093   -8.11514   -9.96863
       O    -3.40952   -8.86884   -9.83186
      H1    -4.24922   -8.48189   -9.55133
       H    -2.07452   -7.39716  -12.23600
       O    -1.76250   -7.33126  -13.14627
      H1    -1.61834   -8.22493  -13.49189
       H    -9.07861   -9.91901   -9.24845
       O    -9.69168  -10.31762   -8.61035
      H1   -10.01159  -11.16262   -8.94326
       H    -7.58879  -12.88578   -8.58965
       O    -7.29266  -12.06343   -9.00021
      H1    -8.00632  -11.36549   -8.81984
       H     0.70627   -9.95471  -14.84724
       O     0.32114   -9.31915  -14.25259
      H1     0.38244   -8.48756  -14.79852

