114
frame 6 | Written by MDAnalysis XYZWriter (release 2.4.3)
       H    12.31269    9.57643  -13.73635
       O    12.07599   10.51607  -13.80252
      H1    12.85397   10.99377  -14.20867
       H    12.95990   11.45834  -17.85015
       O    13.47467   12.28869  -17.72472
      H1    13.58892   12.27160  -16.79324
       H    16.77833   13.35862  -16.56089
       O    16.90544   13.01226  -15.65554
      H1    16.90572   13.81207  -15.03528
       H     8.75323   14.88769  -11.32912
       O     8.61562   15.41605  -12.13811
      H1     8.18197   14.91910  -12.80759
       H    17.77475   16.80527  -13.27064
       O    18.25288   16.97626  -12.42227
      H1    18.65109   16.12801  -12.13896
       H    14.05388   12.08724  -11.66386
       O    14.31128   12.67661  -12.38024
      H1    13.80982   13.50311  -12.10801
       H    15.99922   12.46968  -12.04220
       O    16.93925   12.21270  -12.11876
      H1    17.36065   12.58846  -11.30874
       H    14.46838    9.63796   -8.22621
       O    14.88927    9.25609   -9.03002
      H1    14.28127    9.58204   -9.67798
       H    15.93343   14.62622   -8.92430
       O    16.35904   13.88226   -8.46160
      H1    16.93348   13.54199   -9.16019
       H     8.99165   12.47605   -8.21694
       O     9.81082   12.54812   -7.79232
      H1     9.58555   12.63823   -6.85794
       H    17.68565   15.55422  -15.35385
       O    17.36921   16.31315  -14.79585
      H1    16.41729   16.27205  -14.66775
       H     8.98872   19.50926  -14.58135
       O     9.18187   19.09564  -13.73812
      H1    10.14056   19.16686  -13.52100
       H    11.79478   17.54137   -9.95112
       O    12.28685   16.76283   -9.69184
      H1    12.43916   16.01071  -10.32811
       H    10.63438   12.06813  -10.31490
       O    10.42447   12.91809  -10.86190
      H1    10.29241   12.64916  -11.75974
       H    12.34699   10.76661  -10.85539
       O    13.16126   10.85588  -10.36212
      H1    12.87347   10.96415   -9.47413
       H     9.61158   17.42867  -14.17592
       O     9.94935   16.58667  -14.37215
      H1     9.71972   16.01509  -13.58739
       H    11.17555   18.51741   -6.80327
       O    11.43782   18.42488   -7.70627
      H1    11.87844   17.56454   -7.64269
       H     9.24069   15.80907   -8.89072
       O     8.63409   16.37996   -9.40919
      H1     9.12511   17.20156   -9.54669
       H    17.03412   18.10649  -11.64553
       O    16.54788   18.97500  -11.44998
      H1    15.57167   18.86061  -11.61994
       H     5.54541   16.50128  -10.20487
       O     5.66609   16.03455  -11.04850
      H1     6.62843   15.88828  -11.15009
       H     7.48604   13.23786  -14.71376
       O     7.71022   14.19184  -14.54573
      H1     7.07594   14.72177  -15.05620
       H     9.25108   16.03966  -16.02286
       O     8.88713   16.17677  -16.89009
      H1     7.93343   15.95806  -16.77224
       H     9.63064    9.81427   -9.60514
       O    10.40044    9.93012  -10.16275
      H1    10.86934    9.11853  -10.04150
       H    14.50005   11.46744  -15.29449
       O    14.00168   12.19067  -14.91836
      H1    14.53020   12.41339  -14.06204
       H    13.04666   12.30646   -7.79874
       O    12.59184   11.40891   -7.77604
      H1    11.66163   11.67495   -7.69829
       H    10.49939   14.16818   -7.88060
       O    10.65266   15.11866   -7.71890
      H1    11.54780   15.21962   -8.08455
       H    13.10091   16.43414  -13.97122
       O    12.27718   16.23048  -13.47287
      H1    11.50861   16.44032  -13.98224
       H    10.60095   11.63546  -13.58201
       O     9.75700   11.90677  -13.21296
      H1     9.39166   11.03937  -12.94729
       H    14.47826   16.74674   -9.29710
       O    15.22979   16.15507   -9.24445
      H1    15.82291   16.54230   -8.60535
       H    12.06613   19.37273  -14.26351
       O    11.88616   18.95175  -13.36594
      H1    12.03468   18.00531  -13.39960
       H     7.51440   11.75652  -12.05530
       O     6.58283   11.56020  -12.16488
      H1     6.14150   12.32384  -11.73885
       H    16.31358    9.99888   -9.81697
       O    17.11386   10.12460  -10.33486
      H1    16.90931   10.72061  -11.01839
       H    14.04130   13.99010   -6.58572
       O    13.70358   13.90240   -7.48413
      H1    14.54409   13.84204   -7.99999
       H    10.21207   15.92505   -6.06655
       O    10.69137   16.32463   -5.32810
      H1    10.19016   17.14936   -5.13927
       H    10.29031   18.96811   -9.05338
       O     9.63167   19.24484   -9.73262
      H1    10.11171   19.91404  -10.17669
       H    11.82423   14.19478  -11.07083
       O    12.60709   14.69987  -11.35332
      H1    12.40820   15.10150  -12.19297
       H    14.42784   17.20345  -15.73031
       O    14.61666   16.40807  -15.14996
      H1    14.35016   15.66943  -15.66454
       H    13.27596   15.39037   -7.06521
       O    13.13566   16.30592   -6.76077
      H1    12.47750   16.22787   -6.05190

