114
frame 5 | Written by MDAnalysis XYZWriter (release 2.4.3)
       H   -10.88766  -17.02975   -8.86127
       O   -10.26791  -16.71832   -9.53244
      H1    -9.65534  -17.45930   -9.60964
       H    -9.34872  -18.83717   -6.73395
       O    -9.20347  -19.16780   -5.84071
      H1   -10.08750  -19.45680   -5.55555
       H   -10.66809  -16.22386   -3.63764
       O   -10.45509  -15.94147   -4.53548
      H1    -9.49896  -16.08844   -4.81834
       H   -18.58201  -12.76220  -11.26617
       O   -17.79679  -12.32816  -11.63610
      H1   -17.35542  -11.83342  -10.92061
       H   -11.51811  -15.24524  -11.96036
       O   -11.11911  -14.52627  -11.42721
      H1   -10.49865  -14.94754  -10.81827
       H   -14.77922  -17.70289   -7.90229
       O   -14.23070  -18.50279   -7.78498
      H1   -14.06544  -18.77003   -8.69852
       H   -10.47926  -11.86046   -9.88064
       O   -10.52589  -11.60460   -8.98100
      H1   -10.28992  -12.41554   -8.46265
       H   -17.49054  -15.37056   -7.63678
       O   -16.66668  -15.75733   -8.05439
      H1   -16.84150  -15.44305   -8.94122
       H   -10.80800  -14.93281   -7.31960
       O   -10.52326  -14.07064   -7.36112
      H1   -10.12591  -13.85918   -6.48266
       H   -17.66476  -15.15787   -4.20408
       O   -18.60669  -15.01375   -4.17147
      H1   -19.09638  -15.85956   -4.01447
       H    -8.21502  -17.46963   -5.35647
       O    -7.90179  -16.58119   -5.21616
      H1    -7.40454  -16.35193   -6.03068
       H   -16.64072  -10.06388   -9.49159
       O   -16.56336  -10.45661  -10.36366
      H1   -16.19420   -9.91274  -11.01952
       H   -12.45320  -10.18904  -10.40524
       O   -12.98788   -9.38966  -10.55170
      H1   -13.35221   -9.21733   -9.69202
       H   -17.73879  -18.97737   -7.13497
       O   -17.54787  -18.38876   -7.90489
      H1   -17.26312  -17.52400   -7.67378
       H    -9.88044  -19.32974   -9.48665
       O    -9.07380  -19.22980   -8.90587
      H1    -8.53817  -20.02553   -9.14833
       H   -12.03413  -10.46631   -5.85648
       O   -11.51307  -10.22922   -5.02474
      H1   -12.12813  -10.34345   -4.27102
       H    -9.99525  -13.97416   -4.68421
       O    -9.57830  -13.26920   -5.09003
      H1   -10.17971  -12.53368   -4.93325
       H   -11.38631  -11.32357  -12.56137
       O   -11.82535  -11.77814  -11.77522
      H1   -11.44312  -12.66158  -11.44568
       H   -13.99866  -10.08313   -3.54749
       O   -13.36450  -10.57063   -2.99951
      H1   -13.91177  -11.39846   -2.84933
       H   -15.75989  -14.81516  -13.06646
       O   -15.32730  -15.08757  -13.84895
      H1   -14.60168  -14.41317  -13.86860
       H   -19.74796  -15.79371   -7.16575
       O   -19.16549  -15.10532   -6.81855
      H1   -18.99011  -15.34220   -5.88063
       H   -16.09134  -11.31826   -3.82909
       O   -15.58226  -12.17198   -3.67838
      H1   -15.84716  -12.41038   -2.74767
       H   -12.51985  -19.23501  -10.59458
       O   -13.45162  -19.03406  -10.48012
      H1   -13.53350  -18.37832  -11.17576
       H   -18.09574  -18.53022  -11.72877
       O   -17.31822  -18.20726  -12.19953
      H1   -17.17059  -17.25828  -11.99370
       H    -7.25110  -14.93261   -9.86399
       O    -7.85080  -14.86376   -9.08077
      H1    -8.73455  -15.26296   -9.27986
       H   -14.20848  -13.04561   -4.86271
       O   -13.34697  -13.26969   -5.18554
      H1   -13.09129  -12.52701   -5.72447
       H   -12.31575  -14.03789   -1.36067
       O   -11.87524  -13.76338   -0.56642
      H1   -12.68855  -13.34511   -0.18600
       H   -12.41472  -16.67694   -7.03189
       O   -11.50788  -16.84387   -6.93519
      H1   -11.29072  -16.47983   -6.03612
       H   -11.80189  -10.80386   -8.04901
       O   -12.48789  -10.35813   -7.54440
      H1   -13.23947  -10.95903   -7.48245
       H   -14.51323  -19.24853   -4.86922
       O   -14.07134  -18.39462   -5.11373
      H1   -13.81634  -18.43542   -6.08543
       H   -14.68895  -12.16359   -8.35793
       O   -14.61661  -11.82521   -7.44222
      H1   -15.47690  -11.43994   -7.38178
       H   -15.58045  -14.21508  -10.21657
       O   -16.36613  -14.52286  -10.68384
      H1   -16.83726  -13.71825  -10.93087
       H   -12.53188  -17.39690   -1.68483
       O   -12.01786  -17.21091   -2.46881
      H1   -12.15236  -17.99250   -3.01263
       H   -15.05377  -15.34933   -3.59613
       O   -15.70522  -15.53291   -4.33508
      H1   -15.39724  -16.43097   -4.64969
       H   -13.19607  -14.09720   -9.62755
       O   -14.06237  -13.92255   -9.32451
      H1   -14.07788  -14.41933   -8.49343
       H   -17.69195  -11.00673   -7.93482
       O   -17.09561  -10.32636   -7.59024
      H1   -17.47371   -9.52840   -8.03945
       H   -13.20174  -14.13825   -3.62025
       O   -13.33957  -14.70197   -2.84448
      H1   -13.12878  -15.58194   -3.20827
       H   -14.88845  -15.38995   -7.08913
       O   -13.89173  -15.56863   -6.98251
      H1   -13.62582  -14.83741   -6.42306

