114
frame 6 | Written by MDAnalysis XYZWriter (release 2.4.3)
       H   -14.81776   12.92496    2.23778
       O   -15.51124   13.63410    2.33399
      H1   -15.12470   14.43818    1.95442
       H   -11.01240    9.92487    3.45334
       O   -11.94393   10.11224    3.50784
      H1   -12.06028   10.91338    2.94716
       H   -13.04992   17.89340   -0.19694
       O   -13.74015   18.40760    0.30134
      H1   -13.52690   19.33300    0.05881
       H   -11.18599   17.11905   -1.67899
       O   -11.68397   16.95015   -0.84440
      H1   -11.20431   16.24550   -0.42441
       H    -9.70573   19.99173    1.27178
       O    -9.91751   19.28538    0.66758
      H1   -10.76135   19.00070    1.04315
       H    -5.31001   18.50120    5.09120
       O    -6.10624   18.20141    4.62993
      H1    -5.82619   17.87323    3.75913
       H    -9.55281   16.40567    7.49384
       O    -9.60028   17.39475    7.54050
      H1    -9.41739   17.52269    6.61965
       H    -6.54337   13.56920    7.96043
       O    -6.34443   14.08681    8.76209
      H1    -7.08476   14.67446    8.96556
       H   -12.91488   19.51153    3.74906
       O   -13.64499   19.87912    4.29885
      H1   -14.25262   19.10306    4.13284
       H    -9.32103   17.40240    4.30377
       O    -8.81293   17.90344    4.91855
      H1    -7.94093   17.81275    4.60993
       H   -12.60194   18.39938    1.94376
       O   -11.85549   18.50560    2.54461
      H1   -11.74746   17.64631    3.02014
       H   -14.50428   15.82849    0.87768
       O   -15.34981   15.94540    1.26837
      H1   -16.02377   15.86413    0.52929
       H    -7.89050   12.57156    2.45263
       O    -7.38920   11.73914    2.50820
      H1    -7.61045   11.31962    1.63755
       H   -12.73963   12.91706    1.52266
       O   -13.00256   12.10274    2.02261
      H1   -13.45314   11.46301    1.45234
       H   -12.12848   19.28416    7.22707
       O   -12.05551   20.09384    6.64622
      H1   -12.52289   20.01029    5.80672
       H   -14.41706   16.39893    6.19233
       O   -14.81904   17.13528    6.64450
      H1   -15.34335   16.69130    7.31097
       H   -10.30266   15.30712    3.85581
       O   -10.79234   16.11920    4.06101
      H1   -11.69643   15.80723    4.23764
       H    -7.12351   16.03488   -1.94795
       O    -6.67854   15.79849   -1.14768
      H1    -6.91525   14.83924   -0.87597
       H    -8.91838   12.53016   -1.80622
       O    -9.25481   13.39424   -1.50731
      H1    -9.49695   13.82228   -2.31623
       H    -6.93767   18.82603    7.57634
       O    -6.73761   17.91903    7.97315
      H1    -7.72021   17.61078    8.08101
       H    -4.64992   14.51757    2.31834
       O    -4.37210   15.11816    1.62001
      H1    -4.91130   15.87510    1.83592
       H    -4.47353   12.12364    3.67098
       O    -4.77382   12.42388    2.79887
      H1    -5.68500   12.19562    2.69778
       H   -11.16995   15.53977    9.29487
       O   -11.71416   16.00503    8.64995
      H1   -11.02059   16.63404    8.22183
       H   -16.28836   18.22225    3.05448
       O   -15.43107   17.94326    3.46838
      H1   -15.18557   17.23238    2.82935
       H    -9.92239   13.28089    3.50172
       O    -9.20763   13.70766    3.03931
      H1    -9.60020   13.93756    2.21155
       H   -11.78430   12.08908    5.07831
       O   -11.53135   12.97819    5.26566
      H1   -11.06281   12.84768    6.16503
       H    -8.36818    9.49748    3.84746
       O    -9.26813    9.16408    3.82559
      H1    -9.11399    8.21031    3.95405
       H    -5.41636   13.30228   -1.02779
       O    -5.83831   13.29414   -0.14014
      H1    -5.45124   13.88790    0.54517
       H    -6.93778   17.23134    1.40969
       O    -6.00476   17.26248    1.78812
      H1    -5.51541   17.83338    1.18918
       H   -12.03182   14.14774    0.16119
       O   -12.97907   13.95990    0.21535
      H1   -13.42078   14.46484   -0.47743
       H   -15.79608   13.42301    4.36715
       O   -15.53171   13.00575    5.19292
      H1   -15.25532   12.07565    5.02025
       H    -7.98228   16.63524   -0.07092
       O    -8.65675   16.78409    0.61247
      H1    -9.04580   17.65820    0.46824
       H   -12.78475   14.25500    5.14308
       O   -13.42519   14.99400    5.08429
      H1   -14.22989   14.40640    4.97748
       H    -9.60209   12.08638    8.08592
       O    -9.45167   12.14316    7.11590
      H1    -9.90979   11.30983    6.91253
       H    -5.42118   16.60459    6.05610
       O    -5.33885   15.99344    6.78866
      H1    -5.81667   16.49095    7.47043
       H    -6.12508   11.35470    7.12187
       O    -6.52476   12.19245    6.84101
      H1    -7.46447   12.05564    6.97416
       H    -9.92141   14.14509   -0.10456
       O   -10.46838   14.68502    0.55181
      H1    -9.88701   15.45518    0.84826
       H   -14.32320   13.74446    8.72199
       O   -13.35419   13.67232    8.91216
      H1   -12.90965   14.51665    8.57350

