114
frame 6 | Written by MDAnalysis XYZWriter (release 2.4.3)
       H   -18.66407    1.43999   -4.13517
       O   -18.52817    2.35870   -4.26103
      H1   -17.71646    2.53109   -3.76501
       H   -16.92150   12.99221    1.63565
       O   -17.67909   12.64350    1.16931
      H1   -17.49595   12.88980    0.20710
       H   -14.10249    4.10491   -1.60229
       O   -13.79082    4.51636   -2.40671
      H1   -13.98418    5.45348   -2.25278
       H   -19.73713    6.25260    0.67362
       O   -19.24094    5.89014    1.42797
      H1   -18.30695    5.95437    1.23913
       H   -12.08597    9.99721   -0.29081
       O   -11.26768    9.54960   -0.50037
      H1   -10.99074    9.09468    0.31387
       H   -14.41606    8.21530   -1.63784
       O   -13.69432    7.54707   -1.61046
      H1   -13.04536    7.71205   -0.92253
       H   -17.94854    0.09865    2.84253
       O   -18.04790   -0.12011    3.76459
      H1   -18.92084    0.24068    3.97484
       H   -14.97186    4.11255    4.28081
       O   -14.61823    4.03019    5.17779
      H1   -15.36311    4.36872    5.70756
       H   -12.73963   12.91706    1.52266
       O   -13.00256   12.10274    2.02261
      H1   -13.45314   11.46301    1.45234
       H   -15.98476    4.27707   -4.66645
       O   -15.30282    3.63038   -4.84387
      H1   -14.90913    3.44924   -3.97061
       H   -18.19691    9.09607   -4.24003
       O   -17.96831    9.57092   -3.41262
      H1   -18.63874    9.35502   -2.75403
       H   -13.16783    6.64407   -5.70893
       O   -13.64798    6.40029   -6.50403
      H1   -13.23770    6.71108   -7.33923
       H   -15.38320   10.78807   -1.73168
       O   -15.55960    9.83376   -1.89996
      H1   -16.27864    9.68417   -2.47784
       H   -18.53765    7.93058   -6.68651
       O   -17.94554    8.12711   -5.96094
      H1   -17.06406    8.04717   -6.34677
       H   -18.54174    6.92558    3.10579
       O   -18.65724    7.72632    3.63973
      H1   -17.75413    7.92867    3.99160
       H   -14.58578    5.00105    2.49240
       O   -15.39388    4.49798    2.63440
      H1   -15.27154    3.89762    1.89258
       H   -14.22933    9.35633    1.42184
       O   -13.96205   10.01383    0.81358
      H1   -14.71317   10.03170    0.25002
       H   -12.31552    5.25856    3.08722
       O   -12.95737    5.65469    2.47425
      H1   -12.58238    5.26437    1.67657
       H   -19.93410    5.64308   -2.26815
       O   -18.95589    5.58502   -2.20591
      H1   -18.61257    5.78229   -3.07320
       H   -17.61048   10.82949    2.91957
       O   -18.39268   10.93564    3.47157
      H1   -19.14525   10.53506    3.02081
       H   -11.04880    4.17313    1.45036
       O   -11.59669    4.11248    0.64135
      H1   -11.81835    3.15732    0.61483
       H   -19.29534    3.73171    1.87014
       O   -19.00747    2.97042    2.34001
      H1   -18.16013    3.23411    2.73117
       H   -14.21975    5.68174    5.76226
       O   -14.12593    6.62334    5.97907
      H1   -13.99331    6.72134    6.91994
       H   -12.88615    1.09135   -0.17075
       O   -12.51247    1.65438    0.55672
      H1   -11.85667    1.12667    0.99552
       H   -12.09203    2.65734   -4.69687
       O   -11.68662    3.17050   -3.98776
      H1   -12.41471    3.46771   -3.41316
       H   -12.96452    0.09934   -2.05637
       O   -13.74863    0.09380   -1.45722
      H1   -14.38597    0.65993   -1.93942
       H   -14.11156    7.32996    2.31255
       O   -14.85489    7.90983    2.32857
      H1   -15.45506    7.62589    1.59318
       H   -15.72396    7.67772    5.12862
       O   -16.31699    8.30718    4.63170
      H1   -15.84589    8.23315    3.80853
       H   -15.40384    9.72929    5.01803
       O   -14.71898   10.40615    5.08798
      H1   -14.05819   10.14052    4.43979
       H   -17.82659    6.42845   -5.10873
       O   -17.56602    5.60344   -4.60806
      H1   -18.25932    4.97648   -4.79935
       H   -14.32815    1.78878    0.89606
       O   -15.23311    2.14625    0.63058
      H1   -15.78537    1.38274    0.87514
       H   -18.92307    3.78570   -1.64380
       O   -19.20506    2.95742   -1.31846
      H1   -19.13265    2.39560   -2.10309
       H   -15.68306    1.37856   -3.96457
       O   -15.77642    1.37871   -2.97997
      H1   -16.08130    0.46758   -2.81019
       H   -18.69767    8.30425   -0.46534
       O   -18.00623    8.06644   -1.08526
      H1   -18.33454    7.34732   -1.60277
       H   -10.42523    7.26324    2.10996
       O    -9.97251    7.57923    1.33763
      H1    -9.06055    7.27765    1.41497
       H   -17.19654    9.76334   -0.06007
       O   -16.80489   10.09270    0.71925
      H1   -17.35756   10.93676    0.84306
       H   -16.05411    5.65529    1.28162
       O   -16.66290    6.28409    0.88988
      H1   -16.62376    6.13737   -0.07197
       H   -12.63904    8.10629   -4.43573
       O   -12.42930    7.24682   -4.12847
      H1   -12.95158    7.12309   -3.33487

