114
frame 3 | Written by MDAnalysis XYZWriter (release 2.4.3)
       H   -13.20816    0.39275    3.81793
       O   -14.08258    0.74054    3.59543
      H1   -14.47115    0.94288    4.44750
       H    -8.23887   -4.73764    6.53130
       O    -8.20776   -3.90433    6.00513
      H1    -7.84779   -4.15154    5.11398
       H   -10.05739   -1.94896    2.27228
       O    -9.38203   -2.35389    2.75092
      H1    -9.11825   -1.81938    3.52075
       H   -13.48993   -3.78210   -1.05401
       O   -12.82998   -3.08453   -1.32554
      H1   -12.53072   -2.66017   -0.54287
       H   -10.80873   -4.81041    3.26149
       O   -10.76468   -4.29717    4.07041
      H1   -10.19237   -3.58112    3.78157
       H   -11.81618   -4.68946    9.29518
       O   -11.51437   -5.60856    9.47261
      H1   -10.58147   -5.58112    9.22740
       H   -14.28264   -0.59481    2.61630
       O   -14.38030   -1.38780    2.01026
      H1   -14.72388   -2.07827    2.60223
       H   -13.89601   -3.33934    9.69372
       O   -14.70296   -3.77560    9.95669
      H1   -15.30179   -3.13910   10.32170
       H   -11.81046   -0.81100    4.21954
       O   -11.49549   -0.03182    3.69192
      H1   -10.56219   -0.05224    3.94772
       H   -16.24024   -1.10616   -0.19635
       O   -16.51833   -0.79340    0.64012
      H1   -15.74219   -1.05560    1.16584
       H   -12.40037   -2.96030    4.38753
       O   -12.60584   -2.20292    4.92105
      H1   -13.49533   -2.11790    5.04387
       H    -9.80864   -3.17024    6.43543
       O   -10.58411   -2.70605    6.79277
      H1   -11.24038   -2.51005    6.13185
       H    -8.98718   -5.75184   -0.07602
       O    -8.79777   -4.94849    0.39621
      H1    -7.86603   -4.94802    0.54288
       H   -14.85262   -4.37021    3.14328
       O   -15.45539   -3.96606    2.50463
      H1   -15.11638   -4.20848    1.61957
       H   -14.76678    1.87495    1.95178
       O   -15.45859    2.37476    1.53235
      H1   -15.52642    2.08675    0.61634
       H   -13.58935   -5.80456    4.46671
       O   -14.22157   -5.12647    4.61741
      H1   -14.10421   -4.91647    5.56774
       H   -17.18867   -1.51866    8.25239
       O   -16.44219   -2.09183    8.44633
      H1   -15.91153   -2.01828    7.63517
       H   -12.28193   -0.76535    8.15005
       O   -12.83730   -0.02819    7.81382
      H1   -12.15464    0.61425    7.59837
       H   -10.77262   -5.70842    5.33042
       O   -10.47897   -6.51793    5.89156
      H1    -9.86700   -6.99288    5.33108
       H   -12.22946   -6.67218    8.32156
       O   -12.66327   -7.12600    7.58655
      H1   -11.86098   -7.32467    7.04130
       H    -8.48345   -0.07790    5.57745
       O    -8.63920   -0.24270    4.62035
      H1    -8.30422    0.56043    4.12766
       H   -11.99620   -2.98613    1.18961
       O   -11.88120   -2.03237    1.14664
      H1   -12.66490   -1.66369    1.57777
       H   -11.30624   -6.04121    1.39931
       O   -11.07953   -5.13896    1.61203
      H1   -10.16076   -5.06687    1.20361
       H   -18.19916   -3.61185    4.91647
       O   -18.32702   -3.50109    3.96019
      H1   -17.59902   -4.05917    3.66278
       H    -8.22544   -1.99955    0.08814
       O    -7.70086   -1.59695    0.80111
      H1    -8.18170   -1.85931    1.61759
       H   -17.83810   -0.18491    4.34004
       O   -17.39686   -0.95691    4.78956
      H1   -17.62128   -1.68326    4.18166
       H   -11.76452   -7.16267    4.60950
       O   -12.61229   -7.36370    4.23438
      H1   -12.39467   -7.62232    3.28149
       H    -9.18708    0.41204    7.81431
       O    -8.68193   -0.38054    7.52741
      H1    -9.28418   -1.09382    7.36274
       H   -17.61080   -5.38501    1.58513
       O   -17.28214   -6.08062    2.23134
      H1   -16.46672   -5.73030    2.63112
       H    -9.78010   -2.27256   -0.89419
       O    -9.05164   -2.79503   -1.17937
      H1    -9.06992   -3.51237   -0.59350
       H    -8.31688   -6.42041    8.30821
       O    -9.01457   -5.78594    8.09196
      H1    -9.51585   -6.15745    7.34331
       H   -15.67209   -5.98027    6.65613
       O   -16.43212   -6.35399    6.23913
      H1   -16.21979   -6.87995    5.48142
       H   -13.60460   -5.50373    7.56992
       O   -14.00158   -4.69175    7.33354
      H1   -14.19668   -4.26807    8.19395
       H   -15.66387   -1.23474    5.71832
       O   -14.87232   -1.57837    6.19158
      H1   -14.34312   -0.86350    6.52753
       H   -13.12363   -7.41809    1.01986
       O   -12.24093   -7.82326    1.20113
      H1   -12.06314   -8.62128    0.67176
       H   -14.94467   -5.51789   -0.36590
       O   -14.72808   -4.56889   -0.23738
      H1   -15.56284   -4.10979   -0.44221
       H    -9.14240    0.37002    0.74286
       O    -9.50532    0.95150    0.06698
      H1    -9.17264    1.82711    0.22741
       H   -11.35556   -2.20964    9.95100
       O   -11.80551   -2.70331    9.23166
      H1   -11.21211   -2.97962    8.49576

