114
frame 6 | Written by MDAnalysis XYZWriter (release 2.4.3)
       H    -4.80785   -2.83405   -7.59028
       O    -4.19454   -2.09775   -7.41211
      H1    -4.27626   -1.42420   -8.15726
       H    -7.97085   -1.37292   -8.69142
       O    -8.07944   -2.16820   -9.20309
      H1    -7.29489   -2.39045   -9.69155
       H    -7.29052  -11.47326  -10.36262
       O    -7.17206  -10.95983  -11.17512
      H1    -6.21839  -10.80736  -11.31349
       H    -1.14410   -6.34950  -10.67785
       O    -1.83041   -6.17945  -10.05424
      H1    -2.61527   -5.90549  -10.59320
       H   -11.49177   -5.18480  -11.41166
       O   -12.03003   -5.29994  -10.64170
      H1   -11.97347   -4.45431  -10.16564
       H    -8.34170  -12.32401  -12.48688
       O    -8.40074  -13.19400  -12.77940
      H1    -7.90914  -13.67885  -12.10410
       H    -9.90120   -6.04544   -5.16415
       O    -9.80316   -5.62387   -4.32223
      H1   -10.69709   -5.14375   -4.24168
       H    -7.99934   -5.20454  -10.61089
       O    -7.91854   -5.52361   -9.71999
      H1    -7.94172   -6.51048   -9.77232
       H   -10.36897  -12.56819  -10.60906
       O   -10.08130  -12.14165   -9.79736
      H1   -10.28739  -12.77445   -9.13263
       H    -7.67358   -4.64562   -4.72361
       O    -6.89487   -4.09144   -4.57117
      H1    -6.60270   -3.89468   -5.48111
       H    -7.31153   -5.62572   -7.57160
       O    -7.93281   -6.17450   -7.05796
      H1    -7.25661   -6.68459   -6.50931
       H    -4.80067   -9.73702  -12.63871
       O    -4.42018  -10.32721  -11.97824
      H1    -4.02956   -9.75866  -11.29699
       H   -11.31934   -8.20870  -10.21102
       O   -11.30220   -8.30533  -11.14789
      H1   -11.88863   -7.55617  -11.46705
       H    -4.77632  -13.12496  -13.28099
       O    -4.43126  -13.24794  -12.40156
      H1    -4.27545  -12.32724  -12.09801
       H    -8.62925  -10.04441  -12.29412
       O    -9.39740   -9.75903  -12.79253
      H1   -10.05666   -9.33710  -12.23590
       H    -7.40395   -9.16190  -10.20376
       O    -7.61808   -8.37808   -9.67843
      H1    -6.77719   -7.97621   -9.48939
       H   -11.53005   -5.00864  -13.27712
       O   -10.62994   -4.96869  -12.85394
      H1   -10.42622   -5.90276  -12.68534
       H   -12.06798   -6.45135   -9.35056
       O   -12.25873   -7.05643   -8.62048
      H1   -11.50626   -7.27309   -8.07016
       H   -10.15683  -10.32638   -6.63621
       O   -10.20489  -10.15569   -5.69907
      H1   -10.91169  -10.69330   -5.35571
       H   -10.44635   -8.48516   -6.24225
       O   -10.36787   -7.63423   -6.66255
      H1    -9.45978   -7.49201   -7.00695
       H    -5.78993   -7.20692   -5.11411
       O    -6.40855   -7.68359   -5.70585
      H1    -6.53713   -8.59154   -5.39335
       H    -6.36468   -8.24732  -13.72255
       O    -5.46614   -8.49009  -13.56189
      H1    -4.84896   -7.71086  -13.61729
       H    -8.03051  -10.38530   -4.72462
       O    -7.50139   -9.79532   -4.19678
      H1    -7.01043  -10.34804   -3.62124
       H    -4.72283   -6.49759   -9.92819
       O    -4.93372   -7.30925   -9.42787
      H1    -4.42614   -7.24284   -8.58115
       H    -3.51759  -12.25594   -8.44272
       O    -4.27369  -12.79074   -8.89661
      H1    -4.98749  -12.16317   -9.07440
       H    -4.19323   -4.35116  -10.98727
       O    -4.16494   -5.32448  -10.88541
      H1    -4.15997   -5.48334  -11.83691
       H    -9.21339   -4.85715   -7.10960
       O    -9.59091   -4.00911   -7.41317
      H1    -9.10305   -3.94753   -8.21824
       H    -4.72186   -7.54845   -6.65464
       O    -3.81795   -7.49382   -6.99062
      H1    -3.42765   -6.67975   -6.60809
       H    -3.50037   -5.97580  -14.14857
       O    -4.19653   -6.00709  -13.43542
      H1    -4.96855   -5.54907  -13.76025
       H    -8.83523   -3.98877  -12.34533
       O    -7.85714   -3.99084  -12.32085
      H1    -7.54968   -4.39108  -13.13646
       H   -11.50609  -10.97065   -9.44407
       O   -12.04510  -10.39477   -8.84838
      H1   -12.56153  -11.03311   -8.32376
       H    -6.47339   -4.18187  -15.18956
       O    -6.49185   -4.94478  -14.54812
      H1    -6.83579   -5.72190  -14.96086
       H    -6.46771  -12.76027   -5.13766
       O    -5.84935  -12.90776   -5.86002
      H1    -6.23449  -12.56747   -6.64299
       H    -2.13634   -8.10392  -10.12309
       O    -2.76300   -8.85736  -10.03864
      H1    -3.60745   -8.44233   -9.83224
       H    -8.62185   -9.46528   -8.69089
       O    -8.96157  -10.24982   -8.23655
      H1    -9.52094  -10.76245   -8.87380
       H    -7.33509  -12.87232   -8.50025
       O    -6.96821  -11.98309   -8.58885
      H1    -7.78412  -11.39007   -8.29184
       H    -2.96620  -10.35026   -5.18588
       O    -2.29491   -9.81505   -5.63269
      H1    -2.82381   -9.29694   -6.21545
       H    -4.85517   -5.18312   -7.10812
       O    -5.51470   -4.67426   -7.58318
      H1    -5.59732   -5.14223   -8.41976

