114
frame 1 | Written by MDAnalysis XYZWriter (release 2.4.3)
       H   -11.15111   17.69854   -1.03001
       O   -11.57412   17.57371   -0.18295
      H1   -10.94195   17.12048    0.41781
       H   -11.23438   12.30790  -10.63974
       O   -12.06322   12.08306  -10.11660
      H1   -12.65057   12.67916  -10.58174
       H   -14.93530   15.52470  -13.09064
       O   -15.05556   15.77381  -12.14985
      H1   -15.52721   15.04719  -11.75870
       H   -10.33567   15.81366   -9.68087
       O   -10.98847   15.44371  -10.31161
      H1   -10.97871   16.00755  -11.06756
       H   -13.30026   16.58736   -0.00549
       O   -14.08335   16.04379   -0.06639
      H1   -14.50049   16.56712   -0.76010
       H   -19.99520   16.18452   -4.10752
       O   -19.28322   16.87038   -4.34782
      H1   -19.70627   17.56887   -4.81404
       H   -18.53219   17.43588  -12.48200
       O   -18.56183   17.08703  -13.38600
      H1   -18.14762   17.71191  -13.99716
       H   -14.26043   12.08867   -5.77690
       O   -14.25850   12.68811   -6.52774
      H1   -13.34000   12.77931   -6.80400
       H   -13.57519   17.41266   -5.48566
       O   -13.41240   17.70415   -4.55941
      H1   -13.02632   16.94968   -4.12541
       H   -15.37687   18.03738   -1.13319
       O   -15.94960   17.30564   -1.33286
      H1   -16.02143   17.21839   -2.28749
       H   -10.80179   17.50142  -13.22702
       O   -10.43358   17.06164  -12.47501
      H1    -9.50489   17.28374  -12.47609
       H   -15.18662   14.64359   -3.28211
       O   -14.51227   14.00105   -3.47480
      H1   -14.17639   13.79855   -2.60484
       H   -10.89673   16.51309   -6.46030
       O   -11.59002   15.92608   -6.80585
      H1   -12.27440   16.47707   -7.16365
       H    -9.33603   17.70789   -5.68985
       O    -9.54064   16.89457   -5.28647
      H1    -8.79619   16.29205   -5.42003
       H    -7.00235   19.39511   -9.09607
       O    -7.71421   19.59631   -9.64759
      H1    -8.47134   19.06678   -9.45590
       H   -18.39034   14.19244  -10.41714
       O   -17.45688   14.08669  -10.48838
      H1   -17.24361   13.89531   -9.53706
       H   -12.40317   16.07016  -10.23368
       O   -13.19374   16.65842  -10.11748
      H1   -13.88973   16.40072  -10.74637
       H    -8.53615   15.43823   -7.93483
       O    -8.47517   15.94501   -8.77186
      H1    -8.18075   15.24717   -9.38539
       H   -11.89397   15.36003   -4.85280
       O   -12.04260   15.41628   -3.88793
      H1   -12.82106   14.87766   -3.85556
       H   -10.61037   17.42206   -3.45056
       O   -10.55585   17.87937   -2.62813
      H1    -9.99967   18.62810   -2.91328
       H   -15.71623   20.16921  -11.17585
       O   -15.41963   19.38777  -10.73898
      H1   -16.23264   18.98095  -10.42510
       H   -16.11492   15.89835   -4.73672
       O   -16.45581   16.14357   -3.88532
      H1   -17.34443   16.40941   -4.01763
       H   -15.04078   15.90148   -7.12325
       O   -15.45939   15.12678   -6.65630
      H1   -14.82397   14.41419   -6.44621
       H   -10.35787   10.63343   -7.45045
       O    -9.70585   11.38722   -7.49858
      H1   -10.31786   12.13159   -7.59876
       H   -19.85044   13.73420   -7.04623
       O   -19.21583   14.07805   -6.29901
      H1   -18.34598   14.00623   -6.67921
       H   -11.69249   12.90803   -8.62698
       O   -11.68960   13.19478   -7.70358
      H1   -11.49765   14.12292   -7.61548
       H   -16.47267   18.32369   -4.61762
       O   -15.92992   19.06045   -4.20444
      H1   -15.03845   18.79095   -4.48123
       H   -18.69966   17.44156   -8.73000
       O   -19.26748   16.84783   -8.28222
      H1   -18.78304   16.46781   -7.51924
       H   -18.95564   18.89362  -10.45073
       O   -18.07483   18.90726   -9.91000
      H1   -18.18911   19.57500   -9.23847
       H   -13.93622   18.28052   -7.51892
       O   -13.98303   17.32227   -7.37942
      H1   -13.81417   17.14356   -8.32085
       H   -12.33358   18.03481  -15.55583
       O   -12.26853   18.37639  -14.66861
      H1   -13.18882   18.53872  -14.41186
       H   -15.33312   10.85451   -9.58068
       O   -15.86930   11.31261   -8.93536
      H1   -15.24320   11.31198   -8.17972
       H   -17.50980   19.39956   -2.99233
       O   -18.43960   19.66365   -2.79661
      H1   -18.64299   19.15558   -1.98551
       H   -11.36363   18.54792  -11.65402
       O   -12.12563   19.00419  -11.20989
      H1   -12.79602   18.33904  -10.93321
       H    -9.44027   13.29861  -12.65511
       O    -9.93440   13.26974  -11.83415
      H1   -10.24892   14.13288  -11.61342
       H   -14.87473   17.39041  -13.47227
       O   -14.83836   18.38851  -13.32900
      H1   -15.06956   18.54787  -12.41058
       H    -9.90955   14.79545   -3.79249
       O    -9.02117   14.70340   -3.36548
      H1    -8.69444   13.83444   -3.65086
       H   -16.45498   14.07690   -7.47573
       O   -17.05145   13.42457   -7.90563
      H1   -16.53759   12.66180   -8.20013

