114
frame 0 | Written by MDAnalysis XYZWriter (release 2.4.3)
       H    10.69073   11.35837  -13.49230
       O    10.88361   12.09306  -14.03018
      H1    11.80878   12.37546  -13.65297
       H    11.68455    2.60044  -17.69130
       O    12.26720    2.09119  -18.23588
      H1    12.54434    1.31136  -17.69110
       H    19.22323    4.85295  -18.92815
       O    18.53239    4.28226  -19.26178
      H1    18.39124    3.55474  -18.67076
       H    12.81408    9.85410  -16.53739
       O    13.02749    8.99617  -16.91662
      H1    12.15052    8.70649  -17.25328
       H    13.21685    4.54791  -15.58876
       O    13.54397    5.16269  -14.95121
      H1    13.83239    5.88228  -15.47671
       H    16.89425    8.03470  -16.65323
       O    17.70002    8.23635  -17.06487
      H1    18.17193    7.35883  -17.06381
       H     8.18353   10.57089  -16.82892
       O     8.93289   10.27070  -16.29200
      H1     9.72084   10.72560  -16.61605
       H    16.97869   11.39754  -17.40933
       O    16.02556   11.42289  -17.62584
      H1    15.67457   12.35012  -17.61301
       H    10.25991    4.48403  -19.32702
       O    10.38653    4.91489  -18.52087
      H1    10.29258    5.91587  -18.61267
       H    11.97270    9.95258  -11.42835
       O    11.18031   10.32988  -11.03919
      H1    10.59720    9.60057  -11.03016
       H     9.16225    6.70743  -13.32139
       O     8.67198    7.40971  -12.88347
      H1     8.83160    8.21394  -13.32281
       H     9.91132    4.81068  -14.51962
       O    10.15476    5.20496  -13.65903
      H1    11.05854    5.55208  -13.66201
       H    14.59985   10.09339  -15.32984
       O    15.07111   10.86871  -15.04444
      H1    15.44460   11.20442  -15.94629
       H    18.63094    9.20618  -18.92561
       O    19.26616    9.61836  -19.47894
      H1    19.77739   10.13160  -18.86215
       H    14.31647    6.73760  -19.66161
       O    13.43765    6.67396  -19.27133
      H1    12.87397    6.02299  -19.79737
       H    14.15311   11.78602  -14.01724
       O    13.66491   12.47669  -13.54924
      H1    13.76561   12.21619  -12.67496
       H     7.85256    6.61175  -18.49888
       O     7.73795    6.72927  -17.56989
      H1     8.25591    7.53813  -17.51067
       H    13.87734    3.43333  -17.94094
       O    14.48026    4.16035  -17.88323
      H1    14.43946    4.58589  -18.75493
       H    13.11731    7.87079  -11.95547
       O    13.54217    8.72444  -12.11740
      H1    14.39797    8.54740  -12.58703
       H    16.80875    6.51052  -14.82363
       O    17.02515    5.61312  -14.57789
      H1    16.42215    4.94115  -14.87679
       H    17.70004    2.19854  -17.80683
       O    18.64536    2.01606  -17.72045
      H1    18.98211    1.41234  -18.41953
       H    10.94188    6.72102  -10.97172
       O    11.87850    6.54715  -11.23390
      H1    12.23968    6.61451  -10.33628
       H     8.80263   10.18656  -14.62569
       O     8.92042    9.91093  -13.65974
      H1     8.36566   10.50804  -13.09266
       H    14.61546    3.47778  -14.01319
       O    15.46826    3.17979  -14.36119
      H1    15.28276    2.53721  -15.04734
       H    10.01603    2.50498  -16.23620
       O    10.68068    3.20912  -16.02655
      H1    10.44184    3.92729  -16.64112
       H    12.79304   11.37120  -18.02382
       O    12.79044   11.24717  -19.01315
      H1    13.62429   10.75523  -19.18520
       H    18.88088    5.88362  -15.74781
       O    19.10293    6.07953  -16.68822
      H1    20.09121    5.80899  -16.61726
       H    15.20160    6.26567  -16.97917
       O    15.07906    7.04126  -16.43992
      H1    14.45699    7.58312  -16.93656
       H    19.38360   11.07934  -12.41157
       O    18.49644   11.04649  -12.87660
      H1    17.95250   11.61701  -12.35322
       H    10.72091    8.31207  -18.92574
       O    11.01361    7.77695  -18.18122
      H1    11.82393    7.27953  -18.47457
       H    11.30495   12.26476  -17.24389
       O    11.72936   11.71141  -16.60464
      H1    11.29958   11.95190  -15.73781
       H    16.39741    7.21457  -11.77964
       O    16.35575    6.26024  -11.92817
      H1    16.62679    6.11522  -12.86368
       H    11.62075    2.14258  -13.42894
       O    11.80225    2.82071  -12.76303
      H1    11.15202    3.49653  -12.97111
       H    18.43339    8.70798  -15.43497
       O    18.87363    8.46417  -14.56309
      H1    18.60474    9.13442  -13.97042
       H    16.54801    9.18931  -12.53848
       O    15.89349    9.07191  -13.25944
      H1    15.89861    9.78728  -13.92311
       H    15.42247    2.77912  -17.72768
       O    15.91162    1.91659  -17.74091
      H1    15.63214    1.35658  -18.45002
       H    17.47846    3.16075  -13.36452
       O    18.26066    3.09086  -12.73727
      H1    18.98711    3.36080  -13.27362
       H    14.69238   14.37639  -17.84823
       O    15.54753   14.09186  -17.48684
      H1    16.12453   14.41408  -18.16212

