114
frame 11 | Written by MDAnalysis XYZWriter (release 2.4.3)
       H    19.33862  -11.14738   12.52902
       O    19.21503  -11.39385   11.64495
      H1    18.68331  -12.17002   11.71513
       H    15.59975  -11.45146   12.84451
       O    15.20982  -12.10575   13.51017
      H1    14.41625  -12.33479   13.08956
       H    11.86173   -7.90192    9.73896
       O    10.96575   -7.60419    9.98376
      H1    11.07442   -6.73614   10.42194
       H    14.84328   -7.97150    3.76990
       O    14.18331   -7.30705    3.48441
      H1    14.59068   -6.65403    2.90336
       H    18.92718   -3.28508   11.65199
       O    19.07106   -2.36946   11.32178
      H1    19.95271   -2.13490   11.60470
       H    14.26109   -7.59148    9.71792
       O    13.57275   -7.49723    9.05126
      H1    13.31220   -6.54924    8.94584
       H    17.28172  -11.06240    3.19430
       O    17.22151  -11.23729    4.17864
      H1    16.70629  -10.48253    4.55198
       H    14.97690  -13.25172    5.42426
       O    15.12642  -13.29591    4.45762
      H1    15.72989  -12.52837    4.23220
       H    12.64397   -8.74511    4.11087
       O    12.41327   -9.63079    4.39719
      H1    12.77663   -9.53003    5.31326
       H    17.43556  -10.66176   11.62976
       O    16.51377  -10.39830   11.60558
      H1    16.08697  -11.07656   11.01571
       H    14.59525  -12.16211    9.23668
       O    14.00557  -12.08712    9.98047
      H1    13.49582  -12.88123   10.03849
       H    19.10771   -6.04123    6.91929
       O    18.62004   -5.25225    6.59220
      H1    17.74305   -5.52411    6.27823
       H    16.97060   -2.42863   10.89237
       O    16.21696   -2.12858   10.36398
      H1    15.84840   -2.86171    9.87596
       H    16.61352   -8.50232    4.88042
       O    15.81955   -8.99496    4.65434
      H1    15.44475   -9.24360    5.56314
       H    13.50525   -8.59009    7.43479
       O    13.39513   -9.46486    7.03976
      H1    12.78094   -9.83485    7.66283
       H    15.75724   -3.92388    3.06015
       O    16.07285   -4.54425    3.80090
      H1    16.06553   -4.00238    4.59745
       H    13.71924   -2.84177    6.51970
       O    14.50819   -3.13491    6.04189
      H1    14.52578   -2.47514    5.32264
       H    19.34220   -9.76460   15.17169
       O    18.65588   -9.95901   14.52534
      H1    18.08269   -9.21853   14.50772
       H    16.04374   -4.62881    8.86017
       O    15.31605   -4.41474    9.43082
      H1    15.59510   -4.69636   10.30258
       H    18.99007   -5.19278    2.70817
       O    18.16760   -5.58139    2.32336
      H1    17.47479   -5.28841    2.98163
       H    18.44258  -10.89126    5.51784
       O    18.73173  -10.63859    6.38721
      H1    18.95549  -11.47728    6.82849
       H    15.30877   -5.27873    6.19617
       O    15.84764   -5.80007    6.75535
      H1    15.92159   -6.71558    6.47907
       H    14.22043  -13.93038    7.42318
       O    14.75268  -13.14358    7.15040
      H1    15.66026  -13.47027    7.19692
       H    13.89390   -6.24356    6.24426
       O    13.29938   -5.92292    5.51661
      H1    13.47886   -6.44439    4.70621
       H    13.31708   -5.43927   13.37268
       O    13.16824   -6.07459   12.65708
      H1    12.57420   -6.69686   13.06812
       H    18.84922   -3.28031    6.70664
       O    19.05239   -2.36546    6.82605
      H1    19.64912   -2.06747    6.15281
       H    14.39443   -9.12262   11.26859
       O    13.60858   -9.70688   11.25754
      H1    13.86551  -10.54488   10.78399
       H    18.73693   -8.37402    3.87502
       O    18.23156   -7.58240    4.20542
      H1    18.11304   -7.03482    3.43273
       H    17.09766  -13.03587   13.13442
       O    17.83649  -13.52165   12.59813
      H1    17.42303  -14.35330   12.26762
       H    17.80783   -9.37668    7.12402
       O    17.13205   -8.61219    7.29462
      H1    17.63675   -7.79835    7.30851
       H    19.16810   -6.60666    9.51129
       O    19.87775   -6.26774    8.89640
      H1    20.07461   -5.34334    9.20021
       H    17.13222   -7.12472   14.22956
       O    16.63652   -7.96581   14.17493
      H1    15.79790   -7.78468   14.62683
       H    17.97682   -5.43549   12.20471
       O    17.39839   -4.89001   11.70606
      H1    16.95668   -4.42706   12.39032
       H    17.56728  -12.36451    8.67802
       O    16.90920  -11.90203    9.18798
      H1    16.55107  -11.19055    8.66568
       H    19.18678   -6.85253   13.75900
       O    18.85166   -5.95930   13.61494
      H1    19.54154   -5.43129   13.98810
       H    12.28795   -4.41749    9.50139
       O    12.74591   -4.38712    8.66035
      H1    13.75101   -4.48288    8.89389
       H    14.78975   -7.08690   11.65522
       O    15.39196   -7.75133   11.40312
      H1    15.90121   -8.12835   12.18592
       H    17.58565   -8.25762    9.18260
       O    17.86988   -7.67527    9.92809
      H1    17.08084   -7.59307   10.55994

