114
frame 8 | Written by MDAnalysis XYZWriter (release 2.4.3)
       H    18.70828   17.84658  -16.93143
       O    19.37222   17.23555  -17.30344
      H1    19.15386   17.26924  -18.23111
       H    16.93411   14.38694  -16.33311
       O    16.78030   14.48098  -15.32035
      H1    16.26617   13.75097  -15.02929
       H    16.99138   14.18513   -4.26056
       O    16.02477   14.18641   -4.04069
      H1    15.67523   13.28570   -4.06508
       H    17.29108   16.43609   -6.85353
       O    17.73471   17.06428   -6.29346
      H1    17.03912   17.33766   -5.64197
       H    19.46833   16.86988  -11.55941
       O    19.27106   17.77299  -11.20970
      H1    19.43893   17.76714  -10.27996
       H    18.84414   17.57997   -3.26450
       O    19.54550   16.93670   -3.43714
      H1    19.62501   16.45964   -2.58426
       H    13.10041   11.94591  -11.19593
       O    13.62783   12.57802  -11.67801
      H1    13.06758   13.37969  -11.63988
       H    15.28243   12.01967  -12.01691
       O    16.05084   11.72962  -12.51752
      H1    16.81192   12.21963  -12.19641
       H    16.62316   16.36414   -8.81493
       O    16.96478   15.57727   -8.36906
      H1    17.76515   15.33481   -8.88255
       H    16.65219   15.97798  -14.02085
       O    16.21557   16.79670  -13.94386
      H1    15.56513   16.73921  -14.68662
       H    13.65587   17.23886  -10.85457
       O    13.39577   16.76432  -10.05438
      H1    13.16029   15.83481  -10.32791
       H    17.58554   10.48559   -8.30016
       O    18.09260   10.26510   -9.13983
      H1    17.33234   10.00232   -9.77838
       H    18.27075   13.39506  -15.01167
       O    18.90014   12.77059  -14.62344
      H1    18.67801   11.89601  -15.02071
       H    11.47671   17.57921   -7.52816
       O    11.65613   18.00087   -8.34236
      H1    12.34676   17.43819   -8.79290
       H    17.66977   18.24442  -11.48610
       O    16.79910   18.50874  -11.86502
      H1    16.69647   17.87262  -12.63408
       H    18.52857   11.15805   -6.08655
       O    17.76878   11.66203   -6.43926
      H1    17.04319   11.48417   -5.85861
       H    15.47947   11.66865  -15.52458
       O    15.18705   12.33283  -14.89726
      H1    15.59067   11.95961  -14.12760
       H    19.43725   20.00150   -6.85345
       O    18.64214   19.63919   -6.39210
      H1    18.43357   18.85142   -6.98993
       H    14.45193   12.05368   -7.86696
       O    13.71885   11.42132   -7.86266
      H1    12.96345   11.86857   -7.50339
       H    11.41211   15.31308   -9.04932
       O    10.93461   15.07810   -8.26718
      H1    11.66870   15.11037   -7.66422
       H    13.02685   17.04784  -13.75577
       O    12.43752   16.85810  -12.98284
      H1    11.58203   16.60762  -13.47034
       H    18.28754   12.05204  -10.27452
       O    18.16226   12.79713  -10.82998
      H1    18.61882   13.51716  -10.32623
       H    16.93126   17.86070  -14.98410
       O    17.23193   18.42349  -15.73635
      H1    17.86356   19.05596  -15.33198
       H    14.74572   17.68058   -9.48724
       O    15.71915   17.93320   -9.45163
      H1    16.03624   18.05451  -10.35497
       H    19.48396   15.12786  -10.53598
       O    19.27806   15.14014   -9.59291
      H1    19.69588   15.93787   -9.22912
       H    11.95616   19.69486  -13.49661
       O    12.36771   19.57303  -12.64215
      H1    12.36962   18.59373  -12.57902
       H    15.30014    9.09065  -10.61806
       O    16.12821    9.43989  -10.92962
      H1    16.04918   10.17956  -11.58072
       H    15.67817   13.47072   -6.26759
       O    15.21507   13.73901   -7.09045
      H1    15.87784   14.21731   -7.58306
       H    13.10069   18.94879   -5.99149
       O    13.49707   18.18390   -5.61678
      H1    13.49343   17.57376   -6.37509
       H    11.30299   13.86005  -11.15658
       O    11.86722   14.59301  -10.86347
      H1    11.94290   15.14849  -11.68587
       H    13.98363   18.49263  -15.58953
       O    13.83310   17.50855  -15.39278
      H1    13.50075   17.18601  -16.26869
       H    17.64592   19.06063   -0.37252
       O    18.53458   19.24693   -0.70006
      H1    18.49903   19.44182   -1.66429
       H    16.74426   18.79623   -3.60924
       O    17.69402   18.96447   -3.39499
      H1    17.94547   19.52868   -4.09242
       H    17.09388   19.92691   -7.15742
       O    16.17114   19.91557   -7.45654
      H1    15.96574   19.31047   -8.19299
       H    14.68884   17.83701   -4.18502
       O    15.07538   17.48561   -3.37306
      H1    15.08904   16.50784   -3.41870
       H    15.95632   14.84535  -18.24996
       O    16.83255   14.74946  -17.90000
      H1    17.42455   14.89792  -18.63880
       H    18.43829   15.03538   -5.24675
       O    18.73579   14.55048   -4.48382
      H1    18.87341   15.22010   -3.80150
       H    14.10004   15.00342   -6.47550
       O    13.26192   15.45010   -6.60477
      H1    12.68136   15.17096   -5.88347

