114
frame 1 | Written by MDAnalysis XYZWriter (release 2.4.3)
       H    -7.43088    8.68646  -18.14557
       O    -8.43316    8.61620  -18.20129
      H1    -8.84091    8.90879  -17.44398
       H   -11.17708   11.24616  -14.31750
       O   -12.02161   11.56996  -14.66063
      H1   -12.38280   12.11080  -13.93580
       H    -5.93324   11.15843  -13.83554
       O    -6.21502   11.93256  -13.31119
      H1    -6.53002   11.42512  -12.49809
       H    -4.64368   13.79214  -10.39964
       O    -5.36339   13.91366  -11.01972
      H1    -5.26792   13.37826  -11.84491
       H    -6.73384   13.95164  -15.41081
       O    -6.59848   13.90429  -16.38411
      H1    -5.68956   14.20592  -16.53023
       H   -11.64600    8.37285  -18.90427
       O   -10.87852    8.26268  -19.47184
      H1   -10.08370    8.48085  -18.96988
       H   -11.23438   12.30790  -10.63974
       O   -12.06322   12.08306  -10.11660
      H1   -12.65057   12.67916  -10.58174
       H   -13.98098   13.36259  -13.48998
       O   -13.90215   12.65773  -12.84994
      H1   -14.54122   12.01123  -13.11587
       H    -3.78431   15.86537  -17.88874
       O    -3.89050   14.95136  -17.51700
      H1    -4.29910   14.51614  -18.30710
       H    -8.19682   11.55733  -17.08695
       O    -8.91108   11.77903  -16.51861
      H1    -9.70885   11.46186  -16.92972
       H   -13.74886    7.59664  -17.32491
       O   -12.98589    7.99754  -17.72501
      H1   -13.22351    8.95236  -17.72902
       H    -5.83229    7.28556  -17.21175
       O    -5.77125    8.23996  -17.40152
      H1    -5.50319    8.65791  -16.56879
       H   -10.38581   10.32048  -12.51132
       O   -10.99013    9.72573  -12.05352
      H1   -11.61095   10.31896  -11.71310
       H   -10.91125   15.77435  -13.78703
       O   -11.46686   15.42809  -14.50085
      H1   -10.84086   15.00265  -15.05876
       H   -14.23124   10.68342  -19.68141
       O   -15.09289   10.42478  -19.29748
      H1   -15.04114    9.40984  -19.44252
       H    -7.03005   13.66460  -10.37634
       O    -7.91907   13.39077  -10.15069
      H1    -8.53383   13.40572  -10.92030
       H   -13.38988   15.14030  -14.76253
       O   -14.28502   14.87463  -14.60514
      H1   -14.62560   14.71656  -15.51305
       H    -7.48334    6.76983  -14.23739
       O    -8.23148    7.39025  -14.08467
      H1    -8.43038    7.29174  -13.14407
       H    -5.39044    8.86316  -14.53611
       O    -6.11724    9.48835  -14.60740
      H1    -6.89318    8.91002  -14.48176
       H   -11.77401   11.22043  -16.42971
       O   -11.44155   10.69738  -17.17151
      H1   -11.26396    9.80906  -16.84459
       H    -6.92984   16.72396  -13.04905
       O    -7.86022   16.55266  -13.23087
      H1    -8.03535   16.75231  -14.20382
       H    -7.72396   17.50475  -16.26207
       O    -8.51882   17.05281  -15.88067
      H1    -9.07939   17.74012  -15.41723
       H   -12.36719   17.18187  -17.83765
       O   -11.81020   17.16089  -17.05844
      H1   -11.62300   16.23535  -16.95798
       H   -13.59919   12.98057  -18.71372
       O   -13.22096   13.49539  -17.98989
      H1   -13.32182   14.40443  -18.27413
       H    -9.08547   15.13762  -16.54861
       O    -9.64893   14.44342  -16.79333
      H1    -9.24519   13.63699  -16.46883
       H   -12.01865   10.89857  -18.84319
       O   -12.52413   11.08757  -19.65689
      H1   -12.15578   11.95223  -19.98654
       H    -7.71713   12.83396  -19.12310
       O    -7.14483   12.21226  -18.66584
      H1    -6.91381   12.69890  -17.90028
       H    -9.30620   16.92096  -17.93831
       O    -9.35454   16.79607  -18.91223
      H1    -9.50212   17.52237  -19.44459
       H    -8.54629    6.58075  -18.20609
       O    -8.68640    5.65720  -18.25871
      H1    -8.72758    5.53489  -19.19613
       H    -7.41843   13.21374  -13.58018
       O    -8.07330   13.89327  -13.83184
      H1    -7.82973   14.75801  -13.43573
       H    -9.51923    8.22932  -15.30262
       O   -10.33726    8.49779  -15.67077
      H1   -10.96111    7.86624  -15.34645
       H   -15.01123   13.47107  -17.15605
       O   -15.88984   13.78664  -16.93823
      H1   -16.25451   14.25049  -17.65320
       H   -14.51379   10.89989  -17.12099
       O   -14.70534   10.42450  -16.34178
      H1   -13.89658   10.18945  -15.83492
       H    -9.44027   13.29861  -12.65511
       O    -9.93440   13.26974  -11.83415
      H1   -10.24892   14.13288  -11.61342
       H    -8.82748   11.47968  -14.42638
       O    -9.20636   10.96671  -13.67216
      H1    -8.62433   11.06573  -12.96705
       H    -9.61066   15.03269  -19.44518
       O    -9.62835   14.08275  -19.66736
      H1    -9.53335   13.72929  -18.76500
       H    -7.79212   11.78928  -10.65412
       O    -7.46226   10.98547  -11.12517
      H1    -7.80802   10.24131  -10.60096
       H    -3.42109    9.99419  -17.33529
       O    -3.10432   10.51146  -16.62585
      H1    -2.62166   11.23089  -17.07221

