114
frame 3 | Written by MDAnalysis XYZWriter (release 2.4.3)
       H    -5.04744    2.77207   -2.31479
       O    -4.49627    2.60335   -3.11096
      H1    -5.29594    2.52689   -3.69816
       H    -4.71053   -2.72493   -7.09226
       O    -4.04855   -2.08798   -7.48896
      H1    -4.42061   -1.55498   -8.18887
       H     2.89133    2.23873  -10.13532
       O     3.86087    2.22435  -10.30966
      H1     4.29320    2.46532   -9.51942
       H    -1.64890   -2.84256   -3.29275
       O    -1.98272   -2.48711   -4.14051
      H1    -2.19476   -3.24925   -4.66603
       H    -4.29121   -0.78441   -5.77694
       O    -4.75446   -0.25240   -5.10741
      H1    -4.09412    0.39577   -4.91838
       H    -0.78229    4.48362   -8.95504
       O    -1.29660    5.06197   -8.34517
      H1    -1.35870    5.79081   -8.98295
       H     0.19667    1.89968   -8.39048
       O     0.89164    2.26307   -8.92830
      H1     0.76274    2.39003   -9.84605
       H    -5.26162   -2.11873   -2.76887
       O    -4.29810   -2.34427   -2.51748
      H1    -3.81593   -1.87517   -3.25411
       H     0.52128   -3.96834   -9.97285
       O     0.48339   -4.18880   -9.00342
      H1     0.40976   -5.19948   -8.98428
       H    -0.31104   -3.89103   -6.08496
       O     0.17498   -3.18304   -6.40806
      H1     0.30589   -3.33110   -7.33183
       H     0.90660   -0.72943   -1.29646
       O     1.24953   -1.67237   -1.25690
      H1     1.35194   -1.94603   -2.18051
       H    -6.44378    1.62525   -7.89247
       O    -6.28133    0.71458   -7.61124
      H1    -5.83524    0.83842   -6.74455
       H    -0.42602    5.80131   -2.66602
       O    -0.49608    4.83343   -2.51712
      H1    -1.21765    4.75149   -1.90244
       H     3.86756    3.58171   -4.02293
       O     3.28205    3.69565   -4.78073
      H1     2.36302    3.77995   -4.37382
       H     2.73338   -2.76199   -4.20924
       O     1.79140   -2.52464   -4.16774
      H1     1.45283   -2.83922   -5.04437
       H     5.35899    3.61205   -7.04854
       O     4.71478    3.19278   -7.65565
      H1     4.22676    2.55015   -7.13816
       H     0.39476    2.31751  -12.30337
       O     0.87650    2.72456  -11.59054
      H1     0.66590    3.63404  -11.48161
       H    -0.26321    6.21172   -7.00957
       O     0.49655    6.78396   -6.79199
      H1     0.58510    6.80610   -5.82011
       H    -1.45962   -3.73186   -8.79184
       O    -2.23757   -3.22971   -9.14460
      H1    -2.80728   -3.00438   -8.36440
       H    -1.53773   -0.50482   -4.37308
       O    -1.60181    0.46748   -4.61459
      H1    -0.72226    0.83360   -4.42109
       H    -0.67452    0.98327   -1.38485
       O     0.31250    0.90980   -1.40101
      H1     0.54865    1.36411   -2.24922
       H    -4.58661    5.57577   -6.04949
       O    -3.85253    5.93549   -5.60639
      H1    -3.25725    5.28627   -5.18078
       H     3.38433    0.10230   -4.37912
       O     2.48540    0.14865   -4.72247
      H1     1.97254   -0.64286   -4.47098
       H    -2.63105    3.09304  -10.91442
       O    -2.05846    3.82374  -11.04669
      H1    -2.77448    4.57248  -10.98663
       H     1.20968    3.02349   -3.34965
       O     0.93054    2.30567   -3.98421
      H1     1.68397    1.72383   -4.07187
       H    -2.83051    0.67252  -11.45422
       O    -1.89714    0.78319  -11.41242
      H1    -1.57991    0.37205  -10.61375
       H     2.57180    0.72796   -6.37657
       O     2.53339    0.60984   -7.36732
      H1     2.08056    1.34806   -7.80479
       H    -6.08972   -1.12713   -3.89691
       O    -6.76143   -1.58223   -3.37991
      H1    -7.17979   -2.22716   -3.94387
       H    -4.01464    0.79932  -10.01143
       O    -4.21584    1.73535  -10.32341
      H1    -5.17671    1.75106  -10.19050
       H    -0.99662   -0.22283   -8.40317
       O    -1.13667   -0.71689   -9.25326
      H1    -1.46257   -1.58703   -9.02928
       H    -0.49569   -2.04274  -10.63519
       O     0.05679   -2.61173  -11.26575
      H1    -0.27720   -2.34103  -12.09631
       H    -5.64418   -0.31809   -8.89015
       O    -5.04945   -0.75844   -9.48861
      H1    -5.58014   -1.26610  -10.09089
       H    -3.08538    3.71777   -7.96785
       O    -3.38532    2.81341   -7.85793
      H1    -3.72301    2.53614   -8.72573
       H     3.27888    4.48638   -7.74196
       O     2.85871    5.28154   -8.11320
      H1     1.91483    5.31993   -7.86479
       H    -3.07156    3.40561   -3.95538
       O    -2.47251    4.04556   -4.39756
      H1    -1.74943    4.23920   -3.76473
       H     4.67240   -1.63374   -6.85406
       O     4.23148   -1.55685   -7.70261
      H1     3.50418   -0.93831   -7.59844
       H    -2.95013    0.36285   -1.13562
       O    -2.68524    1.27253   -1.22479
      H1    -3.10415    1.76679   -1.91545
       H    -1.12730    0.91539   -6.23088
       O    -1.08852    1.21025   -7.17442
      H1    -1.84528    1.69779   -7.38242

