114
frame 11 | Written by MDAnalysis XYZWriter (release 2.4.3)
       H    18.47008    4.89415    5.72108
       O    18.09005    4.11432    6.08467
      H1    17.46594    4.44909    6.69808
       H    18.15650    6.93991    8.25476
       O    18.66076    6.14337    8.49524
      H1    19.32583    6.04123    7.83304
       H    16.72344    7.09038   11.94602
       O    15.76630    7.17559   11.99346
      H1    15.38079    6.30828   12.28122
       H    15.78229    3.18785    8.45290
       O    15.63552    3.75725    7.70814
      H1    15.16872    4.48275    8.09713
       H    19.13849    6.56171   17.12308
       O    19.73263    5.96640   16.69079
      H1    19.09742    5.32268   16.31879
       H    16.44829   11.84673   12.92121
       O    16.94497   11.79459   13.76624
      H1    17.63193   12.47766   13.73610
       H    19.08240    7.59371   11.00452
       O    18.56752    6.82342   11.16717
      H1    18.56764    6.37885   10.22198
       H    14.20343    5.46875    5.36857
       O    13.81750    4.67657    5.80599
      H1    14.46420    4.24037    6.39898
       H    14.57887   12.26534   11.63470
       O    15.36687   11.66475   11.43272
      H1    15.44084   11.56811   10.41288
       H    16.27252    3.86812   14.06124
       O    15.94223    4.42945   14.75537
      H1    15.48104    3.89123   15.44246
       H    14.08513    9.67215   13.73996
       O    13.15889    9.82047   14.00427
      H1    12.70774    9.80468   13.14399
       H    12.59562    8.00811    6.93848
       O    13.32596    8.43764    6.44654
      H1    13.05760    9.34295    6.30785
       H    18.74709    6.16302    4.05705
       O    18.51638    6.28659    4.96879
      H1    19.25021    6.72481    5.42952
       H    19.31287    1.95718    7.55215
       O    19.66408    2.77926    7.94424
      H1    19.00626    3.45827    7.52809
       H    17.30938    8.15078    4.86496
       O    16.74299    8.52489    4.19486
      H1    15.99236    7.88489    4.18805
       H    14.67163    6.74298   18.42986
       O    15.49926    6.45544   18.02314
      H1    15.66454    6.99494   17.27376
       H    17.86341   12.15629    5.44464
       O    18.23217   11.87557    6.28533
      H1    19.19094   12.00170    6.26555
       H    16.43925    1.39205    9.49003
       O    15.75045    2.04105    9.76056
      H1    14.88256    1.59320    9.55459
       H    16.22562    8.59062    7.95755
       O    16.46379    7.76647    8.36021
      H1    15.63624    7.32554    8.58327
       H    17.34499   -0.75528    9.03770
       O    17.75249    0.10744    8.90470
      H1    18.51118    0.16645    9.58415
       H    17.05345   14.83441    8.10789
       O    16.68961   14.05677    7.68172
      H1    17.41801   13.43890    7.80106
       H    19.73838   14.08589   13.40401
       O    19.01680   13.78789   13.97624
      H1    19.44985   13.96136   14.79927
       H    15.57338   12.91102    8.38835
       O    15.12909   12.09122    8.61282
      H1    15.42889   11.49354    7.95321
       H    16.70266    2.58887   11.49398
       O    16.94531    2.77697   12.43739
      H1    17.93260    2.66049   12.40934
       H    15.29997    9.29874    6.34428
       O    15.52992   10.15543    6.73027
      H1    16.33660   10.45028    6.26289
       H    11.69631    7.72752    8.92307
       O    12.22405    7.12985    8.34695
      H1    11.68771    6.34478    8.10310
       H    14.26418    5.26205   13.61864
       O    14.02842    5.12773   12.71660
      H1    13.83334    4.17096   12.67386
       H    13.00246    4.69013    9.69953
       O    12.33251    3.94799    9.83471
      H1    11.80169    4.08612    9.03573
       H    18.46785   10.93217   11.56705
       O    18.17622   11.65194   10.90947
      H1    17.26336   11.72418   11.20836
       H    17.77781    7.99219   16.87463
       O    18.22417    8.32906   17.64906
      H1    17.67982    9.06045   17.95994
       H    11.67003    7.44799   15.02569
       O    12.40938    7.30209   14.40867
      H1    12.65938    8.23243   14.17813
       H    11.27834    5.17267   11.11360
       O    11.15319    5.75609   11.91532
      H1    12.03673    5.63008   12.26891
       H    16.66480    6.35753   15.31114
       O    16.85943    7.27180   15.62008
      H1    16.56492    7.86740   14.92578
       H    15.98802   12.82666   15.32657
       O    15.58294   13.24675   16.08745
      H1    15.65844   14.20651   15.96048
       H    13.54627    6.61167    9.53738
       O    14.28717    6.00463    9.63065
      H1    14.84724    6.36665   10.35364
       H    17.45526   15.99045   13.01865
       O    17.00541   15.29045   12.53916
      H1    17.46920   14.48466   12.81234
       H    15.74058    8.43317   12.99150
       O    15.71054    9.05729   13.76358
      H1    16.25321    9.79635   13.45272
       H    18.70039    2.99797   15.83776
       O    18.79868    3.72543   15.20586
      H1    17.92933    4.08770   14.99654

