114
frame 10 | Written by MDAnalysis XYZWriter (release 2.4.3)
       H   -17.06357   -1.06337   -9.35094
       O   -16.12726   -1.06431   -9.60227
      H1   -15.66030   -0.54179   -8.95020
       H   -18.99785   -2.71322  -12.65579
       O   -18.61501   -3.50161  -13.02783
      H1   -19.31605   -4.12256  -13.12511
       H   -17.29629   -1.23171  -14.90673
       O   -16.74672   -1.24583  -14.11081
      H1   -16.55605   -2.18591  -14.16540
       H   -17.17284   -5.89537   -7.53960
       O   -17.88523   -6.49929   -7.17536
      H1   -18.32867   -6.07647   -6.40172
       H   -15.61110   -2.40092  -10.69227
       O   -15.48700   -3.29746  -11.07497
      H1   -15.61173   -3.31121  -12.00794
       H   -18.09175    1.93165   -9.52496
       O   -17.17869    1.93496   -9.81937
      H1   -16.90939    1.04747   -9.75755
       H   -15.30973   -2.20371  -16.35991
       O   -14.69457   -1.48375  -16.14210
      H1   -15.25881   -0.94616  -15.56476
       H   -16.81500   -8.13584  -15.20025
       O   -17.62065   -7.66450  -15.07414
      H1   -17.73857   -7.53242  -14.13130
       H   -16.97575   -4.13640  -13.38054
       O   -16.04387   -4.10064  -13.61990
      H1   -15.60569   -4.94294  -13.30265
       H   -11.76155   -5.42981  -12.12846
       O   -11.47883   -5.49046  -11.18809
      H1   -11.98467   -4.75847  -10.74959
       H   -17.94939   -0.51829  -16.83599
       O   -18.29262   -1.30045  -16.31991
      H1   -17.76022   -1.98392  -16.78512
       H   -15.70828   -9.75450  -14.47701
       O   -15.01380   -9.07965  -14.57879
      H1   -14.20976   -9.49130  -14.18459
       H   -15.95409   -3.99454   -7.74384
       O   -15.84349   -4.80985   -8.29379
      H1   -16.15650   -4.40774   -9.11784
       H   -17.45716    1.60881  -17.31906
       O   -17.76883    0.81669  -17.79797
      H1   -17.59741    1.01607  -18.73425
       H   -16.22276   -3.20697   -5.90542
       O   -16.69559   -2.88259   -6.65030
      H1   -16.12912   -2.10899   -6.88923
       H   -18.63021   -6.27231  -11.06075
       O   -18.33468   -5.60529  -10.40359
      H1   -17.74321   -6.15414   -9.91606
       H   -13.03065    0.74065   -8.85816
       O   -13.34507   -0.07365   -9.21229
      H1   -12.51096   -0.44356   -9.48754
       H   -13.19959   -7.81184   -9.81716
       O   -14.05880   -7.33082   -9.83157
      H1   -13.79833   -6.43718  -10.13348
       H   -13.13667   -1.42536  -15.11140
       O   -12.34936   -1.40950  -14.55569
      H1   -12.49544   -0.63010  -13.99955
       H   -19.12548   -1.56532   -9.58041
       O   -18.64792   -0.83817   -9.14947
      H1   -18.77267   -0.95266   -8.20593
       H   -14.12982   -6.61503   -7.97162
       O   -13.68363   -6.58933   -7.13047
      H1   -14.06895   -5.84384   -6.66365
       H   -20.32573   -2.52267   -6.44668
       O   -19.59287   -2.29342   -5.92909
      H1   -18.81173   -2.60080   -6.38948
       H   -15.43533   -0.81559  -18.92206
       O   -14.48939   -1.02000  -18.78340
      H1   -14.41181   -1.02094  -17.75915
       H   -18.96576   -9.44245  -15.11945
       O   -19.61215  -10.16214  -15.11539
      H1   -20.09205  -10.06437  -14.28118
       H   -13.07680   -4.68109  -16.11431
       O   -12.82221   -4.73933  -17.02601
      H1   -13.38623   -4.12090  -17.41983
       H   -19.22466   -7.94239  -12.05717
       O   -18.73671   -7.28873  -12.60675
      H1   -19.36233   -6.69654  -13.07064
       H   -16.97415    1.34729  -11.82968
       O   -16.93297    1.39540  -12.80504
      H1   -16.82643    0.50116  -13.10197
       H   -18.10519   -8.87222   -9.04225
       O   -18.56997   -8.93047   -8.19501
      H1   -18.39267   -8.09890   -7.69879
       H   -13.96562   -5.94171  -17.90974
       O   -14.47347   -6.63236  -18.40212
      H1   -14.06218   -7.51980  -18.18882
       H   -17.15682   -3.98693  -16.99751
       O   -16.58383   -3.48203  -16.37758
      H1   -16.48810   -4.09351  -15.57719
       H   -13.34224   -3.52023   -9.08916
       O   -13.08944   -3.54892  -10.01888
      H1   -13.99926   -3.39263  -10.43120
       H   -19.38249   -3.57417  -17.83747
       O   -18.70839   -4.33588  -17.81860
      H1   -19.11323   -5.05071  -17.33647
       H   -15.65193   -8.30686   -9.99701
       O   -16.42684   -8.90476  -10.22118
      H1   -15.85036   -9.58813  -10.56291
       H   -16.31932   -7.30983  -18.35116
       O   -16.95558   -7.84370  -18.86853
      H1   -17.16922   -7.39395  -19.70440
       H   -17.81435    2.94213  -15.25961
       O   -17.28325    2.68421  -16.02859
      H1   -16.81556    3.38227  -16.42513
       H   -19.82178    1.30782  -11.66607
       O   -19.44454    0.60187  -12.29621
      H1   -18.55466    0.92435  -12.50323
       H   -14.69449    0.91947  -13.17472
       O   -13.79206    1.19783  -13.39032
      H1   -13.70582    2.20839  -13.37958
       H   -15.09601   -6.79661  -12.18832
       O   -14.74936   -6.47132  -13.00949
      H1   -14.61232   -7.35296  -13.42665

