117
frame 5 | Written by MDAnalysis XYZWriter (release 2.4.3)
       H    -4.67474  -16.46298   10.41023
       O    -4.82800  -16.37787    9.42814
      H1    -4.45210  -17.26004    9.06104
       H    -1.11600  -18.52255   16.75406
       O    -0.78231  -19.41513   16.61185
      H1     0.01815  -19.47470   17.12198
       H   -10.04786  -18.84554   18.49687
       O    -9.92338  -19.78576   18.54960
      H1    -9.11528  -19.95388   18.13612
       H   -11.03493  -14.06310   14.27131
       O   -11.56136  -14.58371   13.68247
      H1   -12.38783  -14.12787   13.44382
       H    -5.92258  -17.50019   12.68083
       O    -5.18441  -16.89800   12.50679
      H1    -4.42201  -17.19111   13.03578
       H    -6.03615  -16.86122   17.29486
       O    -5.54872  -17.51443   16.83699
      H1    -6.10608  -17.77700   16.10835
       H   -11.55012  -14.56385   17.67405
       O   -10.84926  -13.94427   17.89730
      H1   -11.17617  -13.46307   18.69337
       H    -8.38747  -14.08805   15.93685
       O    -8.47618  -15.01859   16.01588
      H1    -7.91662  -15.26316   15.24204
       H    -8.69648  -12.58986   12.06627
       O    -7.96536  -13.11891   12.25317
      H1    -7.44071  -13.10056   11.41029
       H    -6.06058  -19.48381   14.68279
       O    -6.74722  -18.77297   14.58416
      H1    -7.51108  -19.18994   14.18420
       H    -7.16474  -14.37142   12.89475
       O    -6.78344  -15.12220   13.50114
      H1    -6.21391  -15.71286   13.02065
       H    -3.14265  -15.50973   15.61886
       O    -3.11104  -16.29266   16.13026
      H1    -3.98229  -16.54948   16.43060
       H   -11.45860  -11.91923   15.13833
       O   -10.78291  -11.97282   14.48104
      H1   -11.02370  -11.32771   13.86575
       H    -0.90500  -16.66540   18.71604
       O    -1.65216  -17.13457   18.42798
      H1    -2.10346  -16.69320   17.70599
       H   -12.25529  -16.83653   17.40048
       O   -12.45494  -16.55442   18.28575
      H1   -12.26281  -17.30807   18.85980
       H    -2.60599  -11.08411   15.48512
       O    -3.55572  -11.19475   15.33208
      H1    -3.70034  -10.82282   14.45974
       H    -5.27146  -13.29069   17.11678
       O    -4.95874  -12.41263   17.25999
      H1    -4.35596  -12.26820   16.50944
       H    -0.54712  -11.44350   17.19356
       O    -1.07571  -11.03245   16.51358
      H1    -1.49452  -10.22064   16.79521
       H    -6.44315   -8.47891   17.82045
       O    -6.50866   -8.92015   18.68956
      H1    -6.99702   -9.80416   18.62222
       H    -8.67155  -17.48340   16.86784
       O    -8.98091  -18.30117   16.50516
      H1    -8.56801  -18.43659   15.64070
       H    -3.94025  -13.67649   11.90790
       O    -4.38273  -13.62669   12.77885
      H1    -5.11183  -14.25106   12.75548
       H    -7.27247  -18.53879    9.94028
       O    -8.15680  -18.33475    9.58861
      H1    -7.86775  -18.25223    8.64230
       H    -5.47395  -18.90885   17.79773
       O    -5.70439  -19.70074   18.33339
      H1    -4.89161  -20.21985   18.46584
       H    -0.92150  -11.11615   13.47091
       O    -0.65893  -11.92036   13.96043
      H1    -0.87467  -11.64469   14.88930
       H     1.44531  -16.35308   19.99186
       O     0.68135  -16.23760   19.37996
      H1     1.18755  -16.27683   18.55318
       H    -5.44300  -11.72234   12.98248
       O    -5.62140  -10.76925   12.99195
      H1    -6.00343  -10.59622   13.90587
       H    -9.51200  -12.01000   15.77700
       O    -8.99875  -12.30747   16.59700
      H1    -9.61920  -12.81998   17.12824
       H   -11.04322  -16.14195   14.89734
       O   -11.28131  -16.76705   15.61950
      H1   -10.65847  -17.38797   15.77552
       H    -3.12036  -14.63371   13.17872
       O    -2.30400  -15.12508   13.14286
      H1    -2.36179  -15.43593   12.23226
       H    -6.11029  -10.93666   16.25002
       O    -6.62057  -10.28520   15.80371
      H1    -7.53926  -10.40955   16.06219
       H    -8.92552  -16.37609   20.14036
       O    -9.18680  -16.73523   19.27020
      H1    -9.74178  -16.11051   18.80522
       H   -14.00819  -18.24742   16.27316
       O   -13.12272  -18.59839   16.14410
      H1   -12.57142  -17.79877   15.84890
       H     0.67955  -13.92094   14.79092
       O     0.38229  -14.85975   14.84091
      H1    -0.34093  -14.91054   14.16962
       H     1.64099  -17.36207   16.79146
       O     1.79435  -16.39837   16.78740
      H1     1.19305  -15.96215   16.11024
       H    -6.12238  -14.02477   18.91794
       O    -6.17150  -14.65929   18.14994
      H1    -7.14974  -14.81423   18.20084
       H    -2.70897  -17.38097   14.68043
       O    -3.01728  -18.12625   14.13627
      H1    -2.23470  -18.63002   13.91995
       H   -11.93523  -19.47256   14.92382
       O   -11.60068  -19.46670   14.05346
      H1   -12.06865  -18.72694   13.64310
       H     0.25878  -18.90553   13.95633
       O    -0.57563  -19.37348   14.02974
      H1    -0.65389  -19.52845   15.03045
       H    -7.91188  -11.78877   18.12825
       O    -7.68432  -11.46127   19.04528
      H1    -6.96037  -12.04601   19.25764

