117
frame 4 | Written by MDAnalysis XYZWriter (release 2.4.3)
       H   -15.61913   -5.24817   10.53208
       O   -16.10422   -6.12107   10.40799
      H1   -16.89812   -5.74368    9.89889
       H   -13.74267  -11.48108    9.96554
       O   -13.69309  -12.23104    9.37259
      H1   -13.55400  -11.84168    8.50238
       H   -15.79734   -8.99307    2.41474
       O   -15.26361   -8.61434    1.71424
      H1   -15.72799   -8.37846    0.95691
       H    -8.12674   -5.49321    7.38782
       O    -8.23347   -4.52577    7.35356
      H1    -7.41110   -4.15803    7.63063
       H   -13.44392   -7.65160    8.57038
       O   -14.32828   -8.01602    8.83190
      H1   -14.85458   -7.23854    9.01704
       H    -9.05430   -8.46044    3.06368
       O    -9.53859   -8.71221    3.87451
      H1   -10.06472   -9.51237    3.58288
       H   -16.98634   -7.50165   11.73871
       O   -17.72971   -8.13560   11.84430
      H1   -18.23991   -8.11612   11.03674
       H    -9.93320   -5.50822    3.04781
       O    -9.79396   -4.99009    3.87677
      H1    -8.83472   -5.06995    4.09409
       H   -10.77242   -4.84764    8.91201
       O   -10.58895   -5.54969    9.56773
      H1    -9.85140   -6.00018    9.14783
       H   -15.90215   -8.44201    5.81611
       O   -15.21219   -8.93633    6.27259
      H1   -15.25733   -8.54931    7.19343
       H   -13.85958   -0.58884    2.79172
       O   -13.82251   -1.41053    2.27947
      H1   -14.30028   -2.12066    2.70810
       H   -14.06079   -2.99140    9.25261
       O   -14.79876   -3.61574    9.33905
      H1   -15.46610   -2.95069    9.57279
       H   -12.53949   -3.78204    4.57685
       O   -12.53939   -2.85798    4.91171
      H1   -13.46738   -2.52179    4.83377
       H    -9.78967   -3.63163    6.65394
       O   -10.55929   -3.12156    6.83611
      H1   -11.00993   -2.98259    6.02020
       H   -14.42106   -4.49342    2.71635
       O   -15.15818   -4.06371    2.31909
      H1   -15.08442   -4.19694    1.36883
       H   -11.38438  -11.19865    4.69494
       O   -11.17063  -11.15281    3.71244
      H1   -10.37371  -11.72835    3.64405
       H   -17.66590   -9.36864    4.33348
       O   -17.36568   -8.97367    3.47596
      H1   -18.17334   -8.55488    3.13015
       H   -10.70668  -11.83010    7.29156
       O   -10.64709  -11.15878    6.61525
      H1    -9.74304  -10.80030    6.69880
       H   -13.03570   -7.49061   12.48656
       O   -13.72580   -7.54141   13.15177
      H1   -13.86540   -6.63527   13.34288
       H   -12.90055   -6.33918    3.88422
       O   -13.24724   -5.41795    4.00253
      H1   -13.49327   -5.39921    4.92358
       H   -14.68633   -9.71632   11.55582
       O   -14.34509   -9.90039   10.70457
      H1   -14.34509   -9.09094   10.10967
       H   -17.42931   -1.83303    7.42021
       O   -16.75311   -2.00327    8.08001
      H1   -15.92253   -2.10463    7.62963
       H   -12.95507   -1.58274    7.85154
       O   -13.33462   -0.92070    7.23730
      H1   -12.70741   -0.23437    6.98968
       H   -10.17734   -6.31388    5.42495
       O   -10.11417   -7.06266    6.02684
      H1    -9.88715   -7.87505    5.47551
       H   -13.90423  -10.01433    2.13445
       O   -13.47544  -10.85023    2.26001
      H1   -12.65152  -10.80960    2.72654
       H   -11.63315   -6.26301    8.45820
       O   -12.08965   -6.79549    7.74663
      H1   -11.44710   -6.81905    7.04406
       H   -11.17444   -4.12378    2.28661
       O   -11.31369   -3.28187    1.85185
      H1   -12.00759   -2.85018    2.32797
       H   -17.46075   -4.00304    3.54497
       O   -18.12921   -3.41592    3.09078
      H1   -17.70549   -3.23954    2.21906
       H   -14.39162  -12.15062    3.64487
       O   -14.68484  -12.64622    4.39085
      H1   -14.46168  -12.09208    5.17091
       H   -19.31857   -8.90833    6.01534
       O   -19.79031   -8.38642    6.68015
      H1   -19.65307   -7.42209    6.58753
       H   -18.61656   -3.86476    9.72095
       O   -17.91924   -4.38501    9.27012
      H1   -17.45696   -3.65942    8.78270
       H   -11.38425   -7.84613    3.31407
       O   -12.35819   -7.81180    3.15011
      H1   -12.53723   -7.90046    2.18361
       H   -18.04344   -5.44673    1.36783
       O   -17.61108   -6.10038    1.93789
      H1   -16.78510   -6.11012    1.50934
       H   -14.14352  -10.54661    6.41598
       O   -13.62250  -11.34308    6.57498
      H1   -12.72726  -11.16696    6.19216
       H   -16.06853   -5.81172    5.43722
       O   -16.97671   -5.96569    5.07957
      H1   -16.99136   -6.04763    4.14100
       H   -14.25392   -6.24472    6.73052
       O   -14.78116   -5.44102    6.46995
      H1   -14.66565   -4.70685    7.05623
       H   -18.73493   -5.98576    5.59912
       O   -19.59478   -5.81628    5.96141
      H1   -20.20798   -6.02236    5.24828
       H   -16.18896   -1.79115    5.63756
       O   -15.32866   -2.20188    5.73117
      H1   -14.78589   -1.50001    6.16683
       H   -11.55624   -2.37077    9.66510
       O   -12.18544   -2.64093    9.02144
      H1   -11.72852   -2.97876    8.24006

