117
frame 2 | Written by MDAnalysis XYZWriter (release 2.4.3)
       H    11.61298    4.32039  -19.69827
       O    11.18470    4.35014  -18.81520
      H1    11.11123    3.46188  -18.55794
       H     9.28825    8.42610  -12.14974
       O     8.74887    8.84244  -11.44278
      H1     9.11515    8.61871  -10.52482
       H    10.96925   10.29489  -15.54337
       O    11.33604   11.16822  -15.16930
      H1    12.23363   10.85467  -14.79572
       H    13.24393    3.17697  -16.94540
       O    14.09339    3.50143  -17.33190
      H1    14.32282    2.76110  -17.95295
       H     6.67915    0.37705  -19.47001
       O     5.79705    0.06561  -19.72896
      H1     5.19280    0.47985  -19.05911
       H     5.13335   13.71918  -15.52081
       O     5.80116   13.44813  -16.12683
      H1     6.29088   12.72698  -15.67789
       H    12.73921    7.50759  -15.86470
       O    12.97736    8.39205  -16.15520
      H1    12.65444    8.39434  -17.08998
       H    12.88285    5.13391  -14.00050
       O    13.07422    4.62746  -13.13702
      H1    12.47213    4.94626  -12.39915
       H     4.00969    4.69632  -19.80298
       O     3.29168    4.65909  -19.11885
      H1     3.51309    5.49400  -18.64029
       H     9.08472    0.04454  -17.22808
       O     8.89478    0.84297  -16.74721
      H1     8.54824    0.60475  -15.90177
       H     9.61310    8.38724  -17.22536
       O     9.45850    9.19309  -16.66047
      H1     9.35165    9.89676  -17.32785
       H    11.73843    5.36503  -16.41178
       O    12.36395    5.58215  -15.71568
      H1    13.18846    5.74606  -16.11078
       H     5.71818    9.32344  -14.84699
       O     5.76529    9.02804  -15.78698
      H1     6.20141    9.69901  -16.38427
       H     9.69288    5.01975  -12.96361
       O     9.39041    5.89360  -12.70310
      H1     9.60142    6.55056  -13.38724
       H     8.50066    4.28223  -15.21097
       O     9.06263    3.82685  -14.51462
      H1     8.49243    3.07901  -14.29359
       H    14.43503    9.39781  -15.94579
       O    15.11538   10.04816  -15.89831
      H1    15.22233   10.58492  -16.72148
       H     4.12013    7.85609  -17.51511
       O     3.86224    6.87765  -17.41271
      H1     2.88537    6.91880  -17.43195
       H    15.09754    8.71248  -19.36450
       O    14.87677    7.79787  -19.34233
      H1    15.71714    7.26672  -19.51213
       H     6.22473   13.47896  -17.84235
       O     6.74781   13.66609  -18.66361
      H1     7.65270   13.52034  -18.37018
       H     9.99606   13.70312  -19.07471
       O     9.63884   13.75916  -18.20472
      H1     9.39376   14.72377  -17.92283
       H     9.07604    7.02638  -18.76981
       O     9.51993    6.69223  -18.00116
      H1    10.25613    6.20685  -18.35744
       H     9.43171   10.84447  -19.73283
       O     9.97262   10.63339  -18.97615
      H1    10.69591   11.29972  -18.92934
       H    14.83859    5.40084  -17.56880
       O    14.74093    6.26435  -17.07604
      H1    14.73178    7.03237  -17.71464
       H     3.82537    9.76863  -15.97502
       O     3.01192   10.04498  -15.59445
      H1     3.10814    9.77271  -14.64968
       H     8.65242    5.43838  -17.44267
       O     8.07755    4.76167  -17.02485
      H1     7.43627    5.30398  -16.54871
       H    10.13046   11.85141  -13.78606
       O     9.33239   11.72900  -13.18942
      H1     9.44861   10.87004  -12.78666
       H     9.49394    8.63256  -14.80439
       O     9.80863    8.32884  -13.95830
      H1    10.65222    8.78981  -13.84198
       H     6.05123   11.42972  -17.79201
       O     6.63861   10.65258  -17.89009
      H1     6.74375   10.64005  -18.85368
       H    10.48709    2.22034  -16.22149
       O    11.10654    2.95935  -16.35667
      H1    10.73507    3.49372  -15.69184
       H    12.61432   12.66005  -18.68594
       O    12.50120   12.08559  -19.42900
      H1    13.33838   11.62542  -19.34203
       H     7.15167    3.74444  -18.13300
       O     6.27916    3.38018  -18.45575
      H1     5.67319    4.09409  -18.15929
       H     6.58406   11.04675  -13.92722
       O     5.71671   10.84955  -13.48517
      H1     5.93965   10.75553  -12.48931
       H    15.38649    6.98430  -15.60930
       O    15.69515    7.11689  -14.68340
      H1    15.11327    7.65820  -14.15181
       H     5.67936    6.44856  -15.86761
       O     5.64599    5.62915  -15.37292
      H1     6.02319    5.97321  -14.54452
       H     7.52183    6.03230  -12.60077
       O     6.60357    6.03441  -12.81694
      H1     6.11765    6.66047  -12.32761
       H    11.59644    9.33043  -19.30469
       O    12.36712    8.86135  -18.91080
      H1    12.87265    8.48893  -19.63783
       H    11.07198   13.27136  -17.21740
       O    11.95827   13.24824  -16.82282
      H1    11.95691   12.64415  -16.11823
       H     4.55073    1.18409  -16.48849
       O     4.75900    1.19217  -17.45007
      H1     5.19952    2.02862  -17.57757
       H     8.42564   11.71225  -14.82086
       O     7.60404   11.52931  -15.34195
      H1     7.80775   11.12034  -16.18799

