117
frame 1 | Written by MDAnalysis XYZWriter (release 2.4.3)
       H     9.02527    5.11580   10.87729
       O     8.89260    5.96507   10.47235
      H1     8.36253    6.57116   10.95142
       H     6.38966   12.60637   15.59977
       O     7.15453   12.68553   16.17571
      H1     7.43257   11.80726   16.44752
       H     5.56383    3.50708   10.56286
       O     4.69198    3.36585   10.99112
      H1     4.69938    2.50897   11.50292
       H    10.05315    4.63983   14.30268
       O     9.60380    5.47959   14.29173
      H1     8.99957    5.25491   13.57130
       H     4.54381   13.81186   14.36675
       O     5.03023   13.04035   14.12658
      H1     4.97771   13.03351   13.20476
       H     8.43372   12.38902    8.87169
       O     9.18523   12.92556    8.58176
      H1     9.44929   12.56066    7.74384
       H     9.68766   11.19716   16.98162
       O     8.89443   10.78745   17.31005
      H1     8.93784    9.92633   16.85439
       H    11.89355    9.41780   13.46118
       O    11.91938    9.74573   12.56162
      H1    12.05810    8.89648   12.09204
       H     3.72409    6.78829   16.65554
       O     4.50595    7.35951   16.70661
      H1     4.22008    8.30643   16.72086
       H    12.86300    6.71561   14.53034
       O    12.19401    6.67747   13.79561
      H1    11.34815    6.75389   14.25636
       H     6.42906   15.21030   12.52480
       O     7.29938   15.39718   12.88113
      H1     7.48691   14.54027   13.25728
       H     3.13758   11.37870    7.73823
       O     2.25325   11.47711    8.16036
      H1     2.25840   11.27141    9.11833
       H    10.02382    8.05324   15.34149
       O     9.67571    8.86938   15.05939
      H1     8.87566    8.73898   14.50178
       H     5.62765    7.02075   15.41622
       O     6.05811    6.51764   14.67757
      H1     5.45646    5.98629   14.16152
       H     8.83193    7.12707    8.45281
       O     8.79002    7.14323    7.51587
      H1     9.31013    6.37881    7.24651
       H     9.75762   13.67867   14.63892
       O     9.04606   13.08812   14.40378
      H1     8.44807   13.00690   15.18588
       H     6.83992    6.60672    7.25821
       O     6.26009    5.83732    7.38783
      H1     5.37990    6.23862    7.46094
       H     4.27266   10.09803   15.74929
       O     3.89265    9.97710   16.64622
      H1     4.31970   10.57948   17.27711
       H     5.49728   13.25837   11.10516
       O     5.43261   12.38015   11.42815
      H1     4.48894   12.21774   11.28387
       H     6.69754    2.68631   13.34862
       O     6.99112    2.26296   12.56417
      H1     6.24508    1.64514   12.24939
       H     8.30104    4.47676   15.38271
       O     7.39341    4.17597   15.58944
      H1     6.88193    4.91912   15.29420
       H    11.78066    6.71711   11.80764
       O    11.53519    7.09641   10.94322
      H1    10.66556    6.75794   10.73232
       H     6.93361   11.45154   10.46773
       O     7.69024   11.04718   10.08762
      H1     8.41095   11.40849   10.60649
       H     1.45226    9.91432   13.18155
       O     2.13906   10.58997   13.15259
      H1     1.59450   11.40118   13.31011
       H     1.41790    5.51182   13.21730
       O     1.70943    6.39483   13.53472
      H1     1.93247    6.17665   14.43259
       H     9.23227   12.27294   12.85442
       O     9.35695   11.66043   12.07490
      H1     9.68921   10.79209   12.34113
       H     4.66061   12.02469    5.98125
       O     4.78294   12.12891    6.90276
      H1     5.58059   11.61667    7.03433
       H     4.02488    4.71880   12.25729
       O     4.14905    5.38806   12.95169
      H1     3.28859    5.80974   13.03930
       H     7.29183   10.27051    8.30067
       O     7.09404   10.23749    7.35646
      H1     7.78781    9.67840    6.97267
       H     4.76741    6.28209   11.41600
       O     4.86133    6.93788   10.68824
      H1     5.74229    7.31744   10.81992
       H    11.13618   13.28430    9.73861
       O    11.49567   12.81546   10.44655
      H1    10.75075   12.60747   10.99457
       H     2.11870    6.90583    8.43994
       O     1.15491    7.09905    8.47223
      H1     1.17607    8.05387    8.30157
       H     9.88443    3.21692   11.80851
       O     9.18070    3.46916   11.19923
      H1     8.30428    3.20216   11.58551
       H     3.73701    5.47825    8.20798
       O     3.70586    6.44250    8.24478
      H1     4.20983    6.56991    9.08528
       H     6.98810    8.58066   11.79112
       O     7.16125    8.36282   10.86174
      H1     7.32866    9.29678   10.58194
       H     4.02498   10.16170   13.57619
       O     4.84769   10.21799   14.01554
      H1     4.91402   11.15361   14.11849
       H     2.73892   12.59202   10.89371
       O     2.94336   11.63088   10.94028
      H1     2.60506   11.24747   11.76250
       H     6.75626    7.99227   13.84234
       O     7.19438    8.83821   13.70054
      H1     6.45713    9.45298   13.62385
       H     6.74526    4.13374    8.42030
       O     7.00421    3.60544    9.16644
      H1     7.76823    4.07272    9.46135

