117
frame 8 | Written by MDAnalysis XYZWriter (release 2.4.3)
       H   -10.24003    8.32465  -11.27463
       O    -9.79051    8.51840  -12.14583
      H1    -9.92719    7.71624  -12.69304
       H    -8.52440   11.37879  -12.14579
       O    -9.01363   12.06335  -12.62917
      H1    -9.13650   12.75693  -11.91698
       H    -9.72574    7.45212  -16.31321
       O    -9.27805    8.01682  -15.68598
      H1    -8.89497    8.73469  -16.20334
       H   -14.67282   12.75938   -9.87211
       O   -14.49421   13.15084   -8.94431
      H1   -15.38799   13.49699   -8.72127
       H   -14.44859   12.55493  -12.18027
       O   -14.42258   11.98576  -11.35987
      H1   -15.26061   11.58385  -11.33013
       H   -16.82027    5.73100  -17.03382
       O   -16.74364    5.22286  -16.24127
      H1   -16.02834    5.66722  -15.78642
       H   -11.37093    6.80790  -17.09492
       O   -10.68344    7.10419  -17.71317
      H1   -10.88403    8.08284  -17.64881
       H   -14.39064    8.93689  -10.66260
       O   -13.57500    9.09759  -11.15299
      H1   -13.58768   10.03973  -11.36697
       H   -11.95331   10.85838   -6.30240
       O   -11.61672   10.45189   -7.12493
      H1   -12.34200   10.48105   -7.70103
       H   -10.58485    9.42569   -9.66805
       O   -11.08460    8.59579   -9.81110
      H1   -11.94511    8.86456  -10.20688
       H   -10.52557    5.56613  -13.00964
       O   -10.01283    6.19349  -13.56490
      H1    -9.11755    5.86363  -13.46091
       H   -13.69347    9.93452  -19.75174
       O   -13.87829   10.03821  -18.82159
      H1   -14.17204    9.17909  -18.51528
       H   -11.55903    4.95670  -11.04073
       O   -11.37469    4.55127  -11.89622
      H1   -12.18612    4.24022  -12.28626
       H   -18.62116    9.09588  -13.31842
       O   -18.46337    9.90524  -12.85458
      H1   -19.28097   10.31178  -12.57148
       H   -16.40119    6.18055  -13.43556
       O   -15.59083    5.73435  -13.17173
      H1   -14.89022    6.37508  -13.24254
       H   -15.51907    7.36843   -8.30654
       O   -15.83412    8.19683   -8.60395
      H1   -16.54791    8.02838   -9.26643
       H   -13.36282   14.17176  -13.64447
       O   -14.25071   13.95899  -13.32469
      H1   -14.60871   13.47873  -14.07568
       H   -13.51013    6.91655   -7.18555
       O   -13.95699    6.36860   -7.86239
      H1   -13.21309    6.04995   -8.44532
       H    -7.13492   10.14221  -11.10460
       O    -7.68236    9.95999  -11.85774
      H1    -8.38126    9.26405  -11.72382
       H   -10.15466    3.19742  -11.85853
       O    -9.21148    2.90193  -11.75182
      H1    -8.74584    3.68771  -12.14861
       H   -11.03790   10.57422  -14.10304
       O   -10.93579   10.15519  -14.92119
      H1   -10.47551    9.37480  -14.63326
       H   -13.13407    3.11498   -8.32530
       O   -13.83800    3.45156   -7.73514
      H1   -13.83478    4.42352   -7.82801
       H   -11.66499    6.88567   -9.50071
       O   -11.86630    5.92755   -9.50072
      H1   -11.36969    5.49845   -8.78441
       H   -17.90271    7.80503  -15.50586
       O   -17.78868    8.61153  -16.05832
      H1   -16.89960    8.96287  -15.65459
       H   -16.48430    6.24156  -11.26964
       O   -17.08728    6.68453  -10.66863
      H1   -17.76196    5.96388  -10.48033
       H   -15.77227   10.89485  -14.50524
       O   -16.02420   10.01952  -14.41224
      H1   -16.87344   10.05749  -13.99156
       H   -14.25213    4.24983  -13.14741
       O   -13.60502    3.55345  -13.25841
      H1   -13.96788    2.78499  -12.74483
       H   -17.52545    7.63267  -17.82740
       O   -17.23982    7.01495  -18.47533
      H1   -16.25819    7.27678  -18.63877
       H    -7.57011    9.12485  -13.29965
       O    -7.27548    8.45471  -13.97681
      H1    -8.00899    8.23383  -14.61121
       H   -13.65153    4.68193  -17.64059
       O   -13.85185    5.36306  -17.02000
      H1   -13.05960    5.50142  -16.49719
       H   -17.02478    2.34390  -14.29570
       O   -16.59399    2.54158  -15.16830
      H1   -16.64186    3.49746  -15.21096
       H   -14.91666   12.75568  -16.25262
       O   -15.45356   12.60767  -15.43080
      H1   -16.40751   12.74541  -15.71315
       H   -12.42787    9.92253  -17.77146
       O   -11.49213    9.74936  -17.47094
      H1   -11.35043    9.91812  -16.54101
       H   -14.10510    7.01456  -19.75492
       O   -14.55372    7.17633  -18.92248
      H1   -14.08806    6.61119  -18.26820
       H   -17.40914   10.31527   -9.97090
       O   -16.81848   10.52406  -10.74738
      H1   -17.43549   10.15664  -11.45341
       H   -12.52202    6.78320  -14.79454
       O   -12.00884    6.24033  -15.38998
      H1   -11.15617    6.04680  -14.91637
       H   -13.77618    8.03603  -12.75318
       O   -13.79855    7.67591  -13.65748
      H1   -14.46136    8.29757  -13.99817
       H   -19.20192    7.08265  -13.35663
       O   -18.21998    7.17741  -13.39484
      H1   -18.03194    7.43040  -12.45209
       H   -14.95352   10.09034   -8.24814
       O   -14.38929   10.73019   -7.81796
      H1   -14.43045   11.58832   -8.26019

