117
frame 2 | Written by MDAnalysis XYZWriter (release 2.4.3)
       H    -0.71873    9.81902    7.93916
       O    -1.67363    9.78370    8.13940
      H1    -1.96120    8.92697    7.90167
       H     9.21222    6.19370   12.20835
       O     8.82880    6.58450   11.40750
      H1     8.39477    7.41674   11.63620
       H     6.54494   12.44051   15.34472
       O     7.19328   12.70750   16.00317
      H1     7.72704   11.93665   16.17037
       H     5.67350    4.07601   11.14355
       O     4.74535    3.94614   11.34277
      H1     4.73042    3.12313   11.88931
       H     2.79568    3.47169    8.84874
       O     3.77898    3.61644    8.91705
      H1     4.06752    3.49508    9.84019
       H     0.24051    6.75365    5.81787
       O    -0.07151    6.24108    6.61197
      H1     0.69500    6.25898    7.20413
       H     4.44435   13.25363   13.49292
       O     5.27921   12.69921   13.50999
      H1     5.61298   12.81411   12.58372
       H     8.16394   13.05594    7.92983
       O     7.40675   13.62699    7.81390
      H1     6.82611   13.21964    7.17753
       H     6.42569    5.17574    4.80497
       O     5.88510    4.62938    5.39357
      H1     6.00767    5.08534    6.29897
       H     3.30856    6.55324   16.55851
       O     4.14124    7.11558   16.58368
      H1     3.89255    8.03671   16.35798
       H     1.23907    9.52328    6.99309
       O     1.18640    9.54790    7.92856
      H1     1.89864   10.14770    8.22675
       H    -0.53940    7.35505   10.23818
       O    -1.41421    6.89398   10.19584
      H1    -2.08642    7.33242   10.66328
       H     4.25521   11.38406    7.94259
       O     3.29153   11.46958    7.99640
      H1     3.19241   11.72444    8.91671
       H     9.91146    7.78883   15.03133
       O     9.60143    8.67014   15.03008
      H1     8.70691    8.58149   14.63825
       H     5.05554    6.20078   15.43375
       O     5.63272    5.76528   14.77812
      H1     5.19692    5.95693   13.96160
       H     1.83278   13.13997    5.65506
       O     1.77228   13.26340    6.59799
      H1     2.25526   12.51052    6.94843
       H     9.69653    7.11537    7.87735
       O     8.85966    7.36753    7.47639
      H1     8.86266    8.30741    7.77814
       H     7.48269    6.45183    7.66756
       O     6.66578    5.90682    7.80818
      H1     6.02697    6.45352    8.32702
       H     3.53832   10.35346   15.23123
       O     3.28365   10.05898   16.09364
      H1     4.03988   10.47453   16.50025
       H     5.54296   13.65888   10.34002
       O     5.75063   12.82650   10.83262
      H1     4.87930   12.43068   10.90234
       H     8.86239    4.32112   14.45741
       O     8.58177    4.89113   15.23464
      H1     7.70376    5.22214   14.90649
       H     7.36996   12.09545   10.22253
       O     8.12534   11.50929   10.12599
      H1     8.67064   11.83810   10.83468
       H     0.97854    9.95342   12.99554
       O     1.73026   10.59269   13.01950
      H1     1.32026   11.45319   12.97622
       H     1.23378    5.41907   12.79210
       O     1.71668    6.15330   13.05795
      H1     1.72750    6.04591   14.02967
       H     0.01265   13.29216   13.68752
       O     0.61692   13.04582   12.96210
      H1    -0.07182   12.98145   12.24221
       H     6.13101   11.32041    5.37207
       O     6.13664   11.46019    6.31571
      H1     6.98639   11.05221    6.64292
       H     4.32338    5.53959   12.03390
       O     4.25702    6.41304   12.43439
      H1     3.29798    6.51980   12.66681
       H     8.98068   10.49988    7.26754
       O     8.22718   10.13753    7.76693
      H1     8.16504   10.77127    8.52474
       H     4.36048    8.04548   11.76383
       O     4.58737    8.64673   11.03629
      H1     5.59095    8.60806   10.97645
       H     2.59009    6.68330    8.68203
       O     1.62859    6.79008    8.74453
      H1     1.54420    7.66703    8.33323
       H     2.29271    9.23381    4.79035
       O     2.02913    8.62684    5.48128
      H1     2.36031    7.74292    5.25988
       H     4.45623    5.55559    9.10319
       O     4.31511    6.52978    9.04967
      H1     4.33616    6.91235    9.92163
       H     0.60533    7.45647   12.94269
       O    -0.06337    8.18470   12.89332
      H1    -0.61234    8.12736   13.63842
       H     7.01898    9.48020   12.30234
       O     7.60912    9.18215   11.56195
      H1     7.86590    9.96269   11.09412
       H     4.31506    9.81670   12.42101
       O     4.80600   10.01624   13.24292
      H1     4.85112   10.91803   13.36830
       H     2.66738   12.85102   10.56228
       O     3.15364   12.03227   10.68341
      H1     2.59686   11.46217   11.25987
       H     8.09016    3.55020    9.96714
       O     8.60221    2.80697    9.69362
      H1     8.10707    2.11031    9.29436
       H     6.55768    7.81942   15.15631
       O     6.97560    8.40233   14.49011
      H1     6.22527    8.98630   14.23275
       H     6.96830    5.37076    9.38169
       O     7.04735    4.85970   10.19618
      H1     7.70725    5.41583   10.64764

