117
frame 4 | Written by MDAnalysis XYZWriter (release 2.4.3)
       H   -12.83907  -13.06788  -17.55492
       O   -13.54149  -12.84113  -16.99232
      H1   -13.04806  -12.29401  -16.37456
       H   -18.15923   -3.12216  -11.13715
       O   -17.86349   -2.74747  -11.98187
      H1   -18.18556   -3.52868  -12.53033
       H    -9.93896   -4.05802  -16.47019
       O   -10.27040   -4.93374  -16.58032
      H1   -10.71364   -4.88865  -17.45437
       H   -17.82524   -5.72677  -13.90524
       O   -18.78244   -5.45330  -13.94221
      H1   -19.21061   -5.69027  -13.08372
       H   -16.06943  -13.96564  -18.82738
       O   -16.49775  -13.91104  -19.70102
      H1   -15.74357  -13.83997  -20.27560
       H   -14.88497  -15.66483  -18.27577
       O   -14.69489  -16.47844  -18.81112
      H1   -13.85869  -16.26903  -19.28249
       H   -17.42887    0.45556  -17.19108
       O   -17.20889    0.73265  -16.31055
      H1   -16.33073    1.10518  -16.37742
       H   -13.63667   -9.10015  -11.28899
       O   -14.44501   -9.19504  -11.78458
      H1   -15.13971   -9.51176  -11.18643
       H   -10.40082   -4.46750  -19.80825
       O   -10.99791   -4.97970  -19.29319
      H1   -10.40304   -5.73482  -19.28982
       H   -17.91191  -12.86654  -16.26837
       O   -18.02646  -13.70049  -15.78322
      H1   -18.50056  -14.34907  -16.34809
       H   -14.60304  -10.22145  -13.27541
       O   -14.97023  -10.73357  -14.01214
      H1   -15.94248  -10.62942  -13.88987
       H   -15.80341   -7.96564  -16.98786
       O   -16.72018   -7.68702  -17.10948
      H1   -16.98041   -8.10513  -17.94158
       H   -10.32887   -8.30335  -19.13784
       O    -9.65215   -7.66335  -19.14259
      H1    -8.91206   -8.12926  -18.73851
       H   -15.06736  -10.15664  -17.00784
       O   -14.45282   -9.58940  -16.56468
      H1   -14.50678  -10.03844  -15.68462
       H   -14.42727  -12.04591  -12.98946
       O   -14.08778  -12.54267  -12.25116
      H1   -13.23363  -12.19301  -11.93503
       H   -11.71992   -7.52629  -15.10682
       O   -12.05554   -6.62904  -15.12710
      H1   -11.48343   -6.19853  -15.78469
       H   -19.39074   -7.79376  -19.63193
       O   -19.24833   -8.12926  -18.75018
      H1   -19.73350   -8.95723  -18.72876
       H   -19.16028  -13.99525  -13.34516
       O   -19.17367  -14.91640  -12.96370
      H1   -18.24036  -15.09935  -12.88072
       H   -15.85594   -0.03264  -19.52859
       O   -14.99964    0.11923  -19.92232
      H1   -14.26900   -0.13833  -19.30080
       H   -19.65180   -0.89811  -13.27343
       O   -19.31217   -1.18981  -14.11564
      H1   -18.37414   -1.40058  -13.87079
       H   -12.90082   -9.45117  -17.51511
       O   -11.98686   -9.60359  -17.87658
      H1   -12.13824  -10.42124  -18.31445
       H   -17.31204  -11.08051  -17.45783
       O   -16.98157  -11.07935  -16.53403
      H1   -17.24197  -10.19237  -16.20863
       H   -15.64271   -6.66352  -14.53302
       O   -16.22978   -6.71376  -13.73243
      H1   -16.70534   -7.56083  -13.82998
       H   -15.46021   -3.59059  -18.68916
       O   -14.64669   -3.16904  -18.92281
      H1   -14.81984   -2.75998  -19.80636
       H   -14.81653  -13.81425  -16.74726
       O   -15.45953  -14.60263  -16.72571
      H1   -16.36721  -14.24813  -16.66409
       H   -17.53107    0.96980  -19.76021
       O   -17.64292    0.28374  -19.05757
      H1   -17.82968   -0.56687  -19.46753
       H   -14.67556   -5.22191  -15.88577
       O   -14.57687   -6.17743  -15.94003
      H1   -13.60044   -6.29798  -15.78491
       H   -13.80616   -7.69893  -12.55770
       O   -13.10410   -7.01142  -12.64823
      H1   -12.71932   -6.91678  -13.57123
       H   -17.67288   -1.37309  -15.87614
       O   -17.21294   -2.22541  -15.78320
      H1   -17.91092   -2.91393  -15.97851
       H   -15.65113  -14.37579  -13.55025
       O   -15.81817  -15.09780  -14.18639
      H1   -15.64815  -14.83792  -15.07428
       H   -17.92429   -4.50845  -18.02240
       O   -16.95933   -4.54820  -18.21360
      H1   -16.70398   -5.26239  -17.65017
       H   -18.29525  -10.92788  -14.10422
       O   -18.86722  -11.23925  -13.37667
      H1   -18.20165  -11.64838  -12.76636
       H   -15.75423   -3.10162  -15.71784
       O   -14.94153   -3.51402  -15.40877
      H1   -15.18922   -3.55495  -14.49038
       H   -12.40808   -1.14238  -18.06942
       O   -13.27896   -0.79686  -17.97386
      H1   -13.78500   -1.61168  -17.91832
       H   -18.90861  -16.29156  -18.07902
       O   -19.77464  -15.91397  -18.32231
      H1   -19.50808  -15.30863  -19.06733
       H   -13.93004   -6.52322  -17.87746
       O   -13.77260   -6.32149  -18.76070
      H1   -13.83050   -5.36080  -18.78606
       H   -18.57587   -8.73545  -15.00396
       O   -17.60501   -8.91501  -14.87712
      H1   -17.13920   -8.44558  -15.56859
       H   -17.49400  -11.27085  -19.63572
       O   -18.08932  -11.79722  -19.10212
      H1   -17.79256  -12.65989  -19.36338
       H   -11.73179   -9.60410  -16.24839
       O   -11.67756   -9.29769  -15.30437
      H1   -11.35120  -10.06694  -14.77414

