117
frame 1 | Written by MDAnalysis XYZWriter (release 2.4.3)
       H     3.15891   -5.75595   -5.84219
       O     3.41652   -4.87208   -6.23750
      H1     3.61906   -5.16733   -7.11853
       H    -4.05781   -2.11215   -6.39017
       O    -3.54204   -1.72486   -7.09235
      H1    -4.08694   -1.27089   -7.75100
       H     4.97350   -2.68678   -2.15522
       O     4.88933   -3.22932   -1.28393
      H1     5.21754   -4.06030   -1.54009
       H    -0.46788   -5.93637   -1.00938
       O     0.40554   -5.93705   -1.43434
      H1     0.23335   -6.72461   -2.00982
       H    -1.20446   -1.79097   -2.93330
       O    -1.40193   -1.15847   -3.66731
      H1    -1.09096   -1.52338   -4.48672
       H     0.64765   -4.86019   -2.98628
       O     0.23095   -4.19639   -3.60088
      H1     0.97305   -3.78374   -4.05130
       H    -3.21990   -5.56688   -5.53382
       O    -4.11938   -5.73084   -5.20623
      H1    -4.49568   -6.49743   -5.72399
       H    -0.14751    1.34422   -8.40566
       O     0.69980    1.23392   -9.00861
      H1     0.47139    1.86247   -9.71307
       H    -4.85749   -1.85709   -3.71987
       O    -4.24171   -2.54811   -4.01516
      H1    -3.44219   -2.00904   -3.92266
       H    -1.16436   -5.39747   -6.28798
       O    -1.50389   -4.72861   -5.66519
      H1    -0.85351   -4.59936   -4.89679
       H     0.26187   -3.26232  -10.65868
       O    -0.20516   -4.05574  -10.90002
      H1     0.42495   -4.53598  -11.53078
       H    -1.06620   -3.25611   -6.30109
       O    -1.00271   -2.27201   -6.45089
      H1    -1.97169   -2.06012   -6.67062
       H     2.25383   -2.05595   -0.00226
       O     2.29102   -2.82802   -0.63439
      H1     3.23413   -2.87096   -1.04475
       H    -0.01458   -2.82505   -0.82398
       O    -0.72913   -2.88785   -1.44850
      H1    -0.42425   -3.49051   -2.19684
       H     2.16009   -3.28975   -6.27679
       O     1.62473   -2.88479   -5.58944
      H1     0.70914   -2.69603   -5.93989
       H     4.23754    2.18907   -2.57284
       O     4.30137    1.21213   -2.71123
      H1     3.82786    0.91225   -1.85799
       H     5.32014    2.86376   -7.24046
       O     4.81583    2.54119   -8.04848
      H1     4.24539    1.80256   -7.85000
       H     4.70037   -1.36989   -9.94757
       O     5.23776   -0.70274  -10.36003
      H1     4.91239   -0.54046  -11.23713
       H     7.44857   -5.54500   -7.62995
       O     7.60712   -4.62297   -7.76463
      H1     7.02215   -4.22990   -7.10556
       H    -1.39905   -4.21724   -9.62324
       O    -2.13577   -4.02890   -9.06393
      H1    -1.80724   -3.47772   -8.35980
       H    -1.33645    0.85604   -4.44639
       O    -0.89883    1.58285   -4.92893
      H1     0.02619    1.40843   -4.88272
       H     3.57737   -7.97795   -5.04806
       O     2.80707   -7.41492   -4.85292
      H1     2.05905   -7.69615   -5.46247
       H     2.55181    0.27108   -4.54996
       O     1.71278    0.09579   -5.00239
      H1     1.63200   -0.86055   -5.15884
       H     2.12431   -8.29318   -7.64664
       O     1.53612   -8.37955   -6.88525
      H1     1.63350   -9.30354   -6.53575
       H     2.99952   -6.98763   -1.20462
       O     2.75822   -7.58992   -1.90671
      H1     2.74637   -6.99463   -2.64343
       H     1.17294    2.10399   -2.39343
       O     1.05338    1.15919   -2.18543
      H1     1.12724    0.66701   -3.06060
       H     2.21994    0.36297   -6.72920
       O     2.73457    0.46560   -7.55236
      H1     2.11851    0.80059   -8.23561
       H     6.63367   -5.66635   -2.37548
       O     6.58902   -4.93892   -3.00317
      H1     7.20724   -4.30966   -2.61958
       H    -1.18333   -0.47788   -8.91634
       O    -1.29382   -1.17623   -9.58831
      H1    -1.83366   -1.84697   -9.12570
       H    -1.97992   -7.75764   -5.93894
       O    -2.31420   -7.88572   -5.07523
      H1    -2.89549   -7.10824   -4.85982
       H     4.84031   -3.58330   -5.88182
       O     5.61798   -3.03753   -6.13919
      H1     5.84402   -2.43258   -5.42716
       H     0.64420   -1.43675   -9.97263
       O     1.52045   -1.82673  -10.24358
      H1     1.73726   -1.07686  -10.91617
       H     0.00682   -7.65034   -7.21654
       O    -0.85591   -7.09846   -7.33097
      H1    -1.47522   -7.44583   -7.97521
       H     5.17927   -0.54610   -3.21188
       O     5.52691   -1.43323   -3.43039
      H1     6.48741   -1.20534   -3.13720
       H     0.03195   -8.35889   -2.93055
       O    -0.78205   -7.87771   -2.85963
      H1    -1.11611   -7.86745   -3.76161
       H     3.69792   -1.76501   -7.54648
       O     3.31807   -2.36636   -8.21897
      H1     2.58875   -1.90178   -8.63476
       H    -2.41883   -0.27129   -2.16806
       O    -2.76691    0.33208   -1.54156
      H1    -2.71951    1.27503   -1.88322
       H    -1.53568    1.38445   -6.77342
       O    -1.59848    1.12023   -7.70008
      H1    -1.94497    1.94900   -8.05715
       H     3.19500   -4.00994   -8.79914
       O     2.72013   -4.87442   -8.98110
      H1     1.79176   -4.62229   -8.98809

