117
frame 5 | Written by MDAnalysis XYZWriter (release 2.4.3)
       H    -6.76764    8.84225  -17.86599
       O    -7.56562    9.11274  -17.44319
      H1    -7.84526    8.49001  -16.76719
       H    -6.56101    5.13635  -18.84948
       O    -5.92297    5.65021  -18.26095
      H1    -5.07513    5.26020  -18.39484
       H    -4.02124   -2.25652  -17.38991
       O    -3.64906   -2.80493  -16.62913
      H1    -4.26653   -2.55155  -15.99391
       H    -1.61644    6.41166  -14.33489
       O    -2.28656    5.76771  -14.14670
      H1    -2.27305    5.37571  -13.27685
       H    -5.60368    7.19319  -18.42399
       O    -5.43729    8.09355  -18.69041
      H1    -4.84909    8.66399  -18.15416
       H    -6.92948    7.18340  -14.33181
       O    -6.27090    6.73222  -13.80529
      H1    -5.82998    6.22585  -14.47520
       H    -2.37251    7.41717  -16.87776
       O    -3.04057    7.74777  -16.27289
      H1    -3.19541    8.67931  -16.36543
       H     1.64079    2.76033  -14.72936
       O     0.88694    3.32313  -14.71705
      H1     0.18544    2.92198  -14.15807
       H    -4.26818   -0.71048  -14.42464
       O    -4.95756   -1.41295  -14.56235
      H1    -5.36325   -1.63073  -13.66124
       H     1.25410    3.22164  -18.73856
       O     1.62838    3.30362  -19.65849
      H1     2.31192    3.95049  -19.59438
       H    -7.78719    0.75686  -12.77943
       O    -8.04808   -0.13486  -12.93601
      H1    -8.89520   -0.28718  -12.46428
       H     0.40892    3.84597  -10.30666
       O    -0.13018    3.00059  -10.16017
      H1    -0.45528    2.72198  -11.08708
       H    -4.02881    2.15427  -19.54739
       O    -3.31539    1.74816  -19.03518
      H1    -3.28669    2.33652  -18.23902
       H     1.12507    0.62352  -16.47862
       O     1.41312   -0.08395  -17.04913
      H1     2.27504    0.28729  -17.31713
       H     2.22413    8.02234  -18.01578
       O     1.41973    7.88512  -18.50238
      H1     0.77989    7.40508  -17.91527
       H    -3.26141    6.14136  -19.67631
       O    -3.29580    5.51656  -18.93285
      H1    -3.21054    4.67350  -19.33189
       H     2.78676    5.93246  -13.87186
       O     1.98537    5.52186  -13.48563
      H1     1.78412    4.78391  -14.13427
       H     0.03797    1.76499  -13.12004
       O    -0.65615    2.39674  -12.80271
      H1    -1.48576    1.79537  -12.87257
       H   -10.38533    3.10659  -17.60920
       O    -9.76753    2.96795  -16.89141
      H1   -10.43310    2.49181  -16.33742
       H    -0.70916    8.59080  -15.14024
       O    -0.40938    7.65219  -15.13419
      H1    -0.27202    7.43832  -14.17271
       H    -4.67316   -1.70602  -19.62354
       O    -4.36841   -1.09357  -18.95431
      H1    -3.60865   -0.68536  -19.37418
       H    -5.99252    0.79228  -17.29651
       O    -6.82798    1.24679  -17.62635
      H1    -6.91334    2.03583  -17.05974
       H    -3.76226    3.80762  -11.22212
       O    -3.36450    4.69813  -11.49725
      H1    -3.83614    5.38926  -10.95473
       H    -3.49258    1.34694  -11.74420
       O    -2.94014    0.77632  -12.27976
      H1    -2.52185    0.20008  -11.64612
       H    -1.12528    3.62651  -16.88585
       O    -0.18999    3.66508  -17.07459
      H1     0.16291    3.51613  -16.15591
       H     1.92954    0.61485  -13.54569
       O     1.08669    0.54719  -13.97299
      H1     0.66263   -0.17915  -13.51869
       H    -4.60408    6.09527  -16.14173
       O    -4.58953    5.34642  -15.55638
      H1    -3.81747    5.47078  -15.03829
       H    -5.00679    1.40159  -10.07598
       O    -4.66866    2.10682  -10.71157
      H1    -5.41786    2.17699  -11.35761
       H    -6.98034    4.59293  -16.23460
       O    -7.34676    3.82890  -15.78466
      H1    -8.15012    3.52661  -16.31756
       H    -2.76470    0.16844  -16.52411
       O    -3.21070    0.58448  -15.72285
      H1    -2.48022    0.92011  -15.22630
       H    -9.09290    8.17546  -14.95397
       O    -8.58252    7.47984  -15.38683
      H1    -9.17317    6.81798  -15.81962
       H    -3.15529    2.55391  -16.04970
       O    -3.03157    3.25851  -16.70900
      H1    -3.60337    3.97061  -16.34018
       H    -0.62169   -0.86675  -17.28913
       O    -1.47246   -1.05434  -17.64698
      H1    -1.92094   -1.70372  -17.01822
       H    -1.89440    5.90779  -18.03347
       O    -1.05245    6.28474  -17.75612
      H1    -0.60554    5.58792  -17.25811
       H    -3.43833    7.60238  -14.28253
       O    -3.93175    8.09135  -13.58408
      H1    -4.81775    7.68257  -13.52201
       H    -1.96171    8.21327  -12.66704
       O    -1.05033    8.08337  -12.41842
      H1    -1.05221    8.05941  -11.49076
       H    -7.66395    2.78789  -12.30021
       O    -6.88056    2.23610  -12.50211
      H1    -6.70520    2.28733  -13.43840
       H    -8.29209    4.83199  -14.30277
       O    -8.64813    5.16385  -13.45609
      H1    -8.03244    5.77304  -13.01771
       H    -3.26747   10.92627  -17.01277
       O    -4.01410   10.30960  -17.04504
      H1    -4.75204   10.81222  -16.70847

