117
frame 3 | Written by MDAnalysis XYZWriter (release 2.4.3)
       H   -10.49136   13.82966  -10.80327
       O   -11.19048   13.25492  -10.38105
      H1   -11.86221   13.19959  -11.06587
       H   -13.25075   12.31544  -12.78591
       O   -13.39927   12.02465  -11.85210
      H1   -14.29083   12.18404  -11.59968
       H   -15.09905   14.36849  -13.69059
       O   -15.65936   14.57952  -12.92012
      H1   -16.47427   14.08393  -13.10655
       H   -10.23946   16.86955   -8.58805
       O    -9.81652   17.22028   -9.34888
      H1    -9.06687   17.72852   -9.03848
       H   -19.63771   15.09881  -18.31675
       O   -19.72467   14.13882  -18.22465
      H1   -19.03147   13.83534  -17.63975
       H   -18.70342   17.97797   -5.32588
       O   -18.37209   18.02292   -6.21225
      H1   -18.58351   18.96942   -6.54988
       H   -18.31216   17.84577  -13.82299
       O   -18.06503   16.90220  -13.90972
      H1   -17.73482   16.87741  -14.82430
       H   -15.27706   17.67339  -18.34378
       O   -15.51828   17.21403  -17.50598
      H1   -15.78239   16.31264  -17.72885
       H   -11.73463   15.68906  -13.71519
       O   -11.01561   15.03792  -13.55852
      H1   -10.67875   14.92480  -14.46046
       H    -9.20471   18.52870  -12.59201
       O    -8.67059   18.32134  -11.79680
      H1    -8.19375   17.50167  -12.03060
       H   -10.75287   16.93608   -6.17419
       O   -11.13022   16.39143   -6.92260
      H1   -12.07650   16.60496   -6.98147
       H   -17.17635   12.38412  -13.71636
       O   -17.77089   13.14173  -13.85761
      H1   -18.56654   12.78333  -13.50239
       H   -12.19146   13.46144  -14.30584
       O   -13.11923   13.13684  -14.49179
      H1   -13.21088   13.01699  -15.45256
       H   -17.32273   12.87837  -11.43500
       O   -16.68923   12.36410  -10.92800
      H1   -16.55616   13.02942  -10.10324
       H    -8.25998   17.67155  -16.34504
       O    -8.47391   17.09101  -15.58249
      H1    -8.77994   17.76616  -14.97014
       H   -14.42540   16.87355  -11.65640
       O   -14.37137   16.23953  -10.89331
      H1   -14.98099   15.55655  -11.18238
       H   -13.05316   16.10415  -20.13511
       O   -13.25936   15.60753  -19.32518
      H1   -13.79688   16.27195  -18.85084
       H   -11.93014   16.00110  -18.14607
       O   -11.37511   16.33875  -17.41674
      H1   -10.86056   15.59626  -17.10218
       H    -8.89816   15.22142  -15.30512
       O    -9.47587   14.53239  -15.70775
      H1    -9.10187   13.72924  -15.25490
       H   -14.37531   16.41500   -6.92259
       O   -13.93125   16.47116   -6.06651
      H1   -13.40345   15.64805   -5.94052
       H   -15.20088   10.95527  -14.02639
       O   -16.14347   11.03961  -13.74291
      H1   -16.61967   10.59709  -14.49067
       H   -19.48426   15.55384   -6.15346
       O   -19.40660   14.76616   -6.70702
      H1   -18.68032   14.90996   -7.28684
       H   -17.72906   13.26135  -15.41216
       O   -17.69138   13.16094  -16.37814
      H1   -17.59545   12.21010  -16.53177
       H   -15.67484   19.29764   -9.35312
       O   -15.83684   19.40999   -8.40061
      H1   -15.01127   19.75272   -7.99363
       H   -18.56754   17.38287  -17.30380
       O   -17.97071   17.84699  -16.68444
      H1   -17.02615   17.81703  -16.97201
       H   -11.87674   13.79943   -8.42104
       O   -11.83659   13.79615   -7.45530
      H1   -11.47179   14.66156   -7.13695
       H   -19.04032   17.58078   -9.52674
       O   -19.11435   17.10294   -8.69398
      H1   -18.94958   17.67762   -7.90493
       H   -19.48506   19.77013  -10.78488
       O   -18.72716   19.29203  -10.34785
      H1   -18.89287   19.61524   -9.41295
       H   -16.11519   17.40126   -8.22661
       O   -15.72913   16.51950   -8.42214
      H1   -15.49670   16.56756   -9.33744
       H   -12.24575   17.24545  -15.80376
       O   -12.24633   17.52096  -14.86708
      H1   -13.13172   17.58113  -14.47728
       H   -12.72383   12.96222  -17.80319
       O   -13.43034   12.79190  -17.16292
      H1   -14.16385   13.30534  -17.56485
       H   -10.94687   18.46846  -14.27104
       O   -10.08506   18.88898  -14.09859
      H1   -10.23165   19.78644  -13.75016
       H   -10.93949   20.04586  -11.27821
       O   -11.15229   19.60966  -10.43042
      H1   -10.72142   18.69713  -10.39335
       H   -18.73094   19.15883  -15.76908
       O   -19.19175   19.90775  -15.26529
      H1   -19.68768   19.49987  -14.49594
       H    -9.91043   15.45948  -11.88164
       O    -9.44244   15.04863  -11.19623
      H1    -9.30784   15.74056  -10.53922
       H   -15.70920   16.95921  -13.26248
       O   -14.96912   17.63402  -13.22764
      H1   -15.33152   18.48706  -12.85069
       H    -9.90075   19.26292  -15.80216
       O    -9.97448   19.75706  -16.63848
      H1   -10.28551   19.09777  -17.24078
       H   -16.09520   14.46992  -18.67328
       O   -15.72684   14.33289  -17.75875
      H1   -16.35540   13.83320  -17.25099
       H   -16.71766   15.03652   -8.60943
       O   -17.31380   14.25732   -8.47323
      H1   -16.86258   13.68999   -7.85293

