117
frame 1 | Written by MDAnalysis XYZWriter (release 2.4.3)
       H    17.79218    3.95536   -8.00138
       O    18.54665    3.73784   -7.45059
      H1    18.43436    2.79663   -7.18086
       H    16.16039    8.23970   -5.97537
       O    15.56120    8.66690   -6.64840
      H1    14.67112    8.42567   -6.49988
       H    14.97934    4.80886    2.08847
       O    15.20267    4.33601    1.25288
      H1    15.24888    3.40532    1.52107
       H    11.92743    4.33361   -5.80018
       O    12.19080    4.34850   -4.84477
      H1    12.76426    5.14698   -4.75362
       H    15.46878   10.13184   -3.13051
       O    15.71637   11.09805   -3.26755
      H1    15.06486   11.57283   -2.72105
       H    14.74672    3.20682   -3.62161
       O    15.23983    3.90107   -3.20668
      H1    15.51419    4.37896   -3.99708
       H    12.08266    2.86500   -1.04001
       O    12.07428    3.83152   -1.00593
      H1    13.00245    4.20208   -1.12210
       H    17.15188    4.27869   -5.44871
       O    16.49754    4.96157   -5.30292
      H1    17.09306    5.69263   -5.10533
       H    15.79369   -0.65872   -2.63821
       O    16.45872   -1.00233   -2.01119
      H1    16.94814   -0.22043   -1.70412
       H    15.47852    1.36234    0.40154
       O    15.09397    1.52066   -0.50103
      H1    15.64479    2.21862   -0.90957
       H    17.70494   10.49913   -1.65789
       O    17.92606    9.79263   -1.06520
      H1    16.99764    9.36112   -0.96647
       H     9.35931    1.21894   -3.95768
       O    10.19868    0.88258   -3.52469
      H1    10.99908    1.25263   -3.90355
       H    13.39173    1.02341   -0.91035
       O    12.45904    1.14977   -1.22736
      H1    12.07207    0.28394   -1.09640
       H    19.16397    1.15792   -0.80593
       O    18.43838    1.15718   -1.40809
      H1    18.42789    2.04145   -1.82446
       H    12.49673    2.87970   -4.17135
       O    12.81013    1.93651   -3.93574
      H1    12.55859    1.59786   -3.04969
       H    18.85410    5.30501   -2.57261
       O    19.14571    6.03650   -1.98369
      H1    19.30362    6.81341   -2.49842
       H    16.76969   -2.93119   -4.42910
       O    17.52132   -2.42544   -4.22925
      H1    17.11965   -1.70249   -3.70241
       H    12.44635    6.42270   -2.61804
       O    11.64661    6.91708   -2.47306
      H1    11.11983    6.71850   -3.24072
       H    17.22605    3.44983   -3.18901
       O    18.12264    3.50327   -2.82459
      H1    18.74512    2.88572   -3.16721
       H     9.18332    4.87093   -3.19653
       O     9.57318    4.46708   -4.01926
      H1    10.45821    4.11354   -3.86476
       H    18.32861    7.65599   -6.38743
       O    17.78098    7.49788   -5.60828
      H1    18.33393    7.97893   -4.97414
       H    13.73229    9.88600   -5.78658
       O    13.09701    9.17221   -5.76609
      H1    12.78993    9.30360   -4.84517
       H    12.80869    1.00035   -6.31472
       O    12.20905    1.04929   -7.03688
      H1    12.76135    0.96576   -7.90125
       H    17.58199    4.37513    0.74348
       O    18.12249    4.70664    1.48188
      H1    17.45125    4.72777    2.18108
       H    17.36411    0.88667   -6.16436
       O    18.16337    1.39733   -5.99886
      H1    18.90000    0.86182   -5.69265
       H    14.07961    0.52302   -4.04521
       O    14.77861   -0.15162   -4.10815
      H1    14.42766   -1.07274   -4.12065
       H    13.60079    2.61873   -7.32733
       O    14.53206    2.82610   -7.23640
      H1    14.91069    1.92151   -7.02017
       H    15.42401    3.48953   -8.56717
       O    16.24328    3.94497   -8.97612
      H1    16.05631    3.89302   -9.94096
       H    16.18135   -0.17678   -7.19692
       O    15.66842    0.30463   -6.58189
      H1    15.43148   -0.18148   -5.78009
       H    16.28621    7.52282   -0.20638
       O    15.47017    7.97188   -0.36263
      H1    14.84203    7.31818   -0.71016
       H    13.66415    9.20685   -3.08091
       O    14.56470    8.86198   -2.95511
      H1    14.55731    8.61363   -2.01311
       H    14.80014    6.27157   -5.14300
       O    14.06548    6.46787   -4.48755
      H1    14.28170    7.33059   -4.08267
       H    12.62706    4.93616   -7.86322
       O    11.88855    4.39913   -7.56950
      H1    11.52228    4.17588   -8.40869
       H    12.14026    7.40288   -9.18147
       O    12.91360    7.32310   -9.78735
      H1    13.55700    6.85447   -9.28002
       H    19.26211    8.42906   -8.49356
       O    19.35729    7.60092   -7.96777
      H1    19.22050    6.82668   -8.52990
       H    15.61821    6.96477   -7.55596
       O    15.07162    6.35866   -8.14364
      H1    15.57674    5.53896   -8.20322
       H     9.95969    6.05801   -4.79118
       O    10.08121    7.01266   -4.88427
      H1    10.50060    7.14937   -5.77565
       H    14.87995    5.12514   -1.58622
       O    14.34094    5.59562   -0.96314
      H1    14.58627    5.19092   -0.14350
       H    18.13960    6.43241    0.78700
       O    18.23965    7.25410    0.33796
      H1    18.50407    6.96506   -0.54686

