117
frame 8 | Written by MDAnalysis XYZWriter (release 2.4.3)
       H     2.88936   10.09796   -2.53630
       O     2.82088    9.62915   -3.37753
      H1     3.38529    8.86305   -3.36461
       H    -2.14153   13.02905    3.33018
       O    -2.15110   13.97160    3.12011
      H1    -3.04289   14.15477    2.76901
       H    -0.98970    5.68424    4.29221
       O    -0.32846    5.84929    4.96246
      H1     0.29168    5.08422    4.95093
       H     1.83860    5.04148    0.94072
       O     2.44980    4.46389    1.33354
      H1     2.25706    3.55831    0.96331
       H    -1.87542    7.45598   -0.91525
       O    -2.67102    7.27559   -0.39524
      H1    -3.36602    7.08647   -0.99593
       H    -3.86647    9.79780   -3.59647
       O    -3.84446   10.35711   -2.84446
      H1    -4.63786   10.16358   -2.28283
       H    -2.01498    5.81840    0.18331
       O    -1.75398    4.98676    0.61259
      H1    -1.73928    5.15085    1.58989
       H     1.39221    7.72430   -0.21672
       O     2.16266    7.31774    0.25790
      H1     2.39576    7.86854    1.01576
       H     0.21185    6.19621   -1.72704
       O     0.25513    5.30736   -2.10661
      H1    -0.05063    4.68583   -1.41067
       H     1.67453    9.57995    5.60391
       O     2.49918    9.77465    6.08532
      H1     2.29348   10.58634    6.54995
       H    -3.66989    9.50784    1.00378
       O    -3.45570    9.56194    1.87141
      H1    -4.19679    9.93157    2.33462
       H    -0.81147   10.94396   -1.88161
       O    -1.17963   10.83642   -2.79048
      H1    -2.17246   10.64886   -2.70116
       H     3.49324    7.56932   -1.12293
       O     3.67674    7.44323   -2.05187
      H1     3.37758    6.54556   -2.28005
       H    -6.71153    8.65269    3.34331
       O    -7.15705    8.99256    2.54608
      H1    -6.86915    9.87564    2.45403
       H    -0.45831   14.89624    2.66761
       O     0.36559   15.39015    2.79931
      H1     0.18182   16.18462    3.38955
       H     3.34720   14.14170    1.28717
       O     2.86645   13.44515    0.82458
      H1     2.53410   13.98746    0.06264
       H    -1.89264    3.73271    4.12876
       O    -2.24771    4.38048    3.58798
      H1    -3.11852    4.49054    4.03058
       H     3.58090    8.70708    3.47976
       O     3.08109    8.72581    2.65271
      H1     2.66074    9.57532    2.74125
       H    -1.55615    5.81146    8.07846
       O    -1.64678    6.51545    7.40366
      H1    -0.91392    6.32539    6.80957
       H    -5.17015   13.25490    2.40565
       O    -4.76575   14.07325    2.13890
      H1    -5.39103   14.80171    2.24812
       H    -5.12364    7.67541    5.10835
       O    -5.98306    7.90557    4.74782
      H1    -6.58458    7.72274    5.45207
       H    -5.24973   11.51885    3.80865
       O    -5.78376   11.35700    3.01835
      H1    -6.68190   11.74393    3.07819
       H    -6.10426    9.47675   -0.84644
       O    -5.31584    9.97058   -0.57339
      H1    -5.72651   10.67435   -0.04024
       H     0.08563    9.42152    2.31362
       O    -0.40063   10.10286    1.88474
      H1    -1.32484    9.85320    2.08030
       H    -1.46212   11.07841    4.86246
       O    -1.33546   11.67513    4.15499
      H1    -0.97944   11.13887    3.40834
       H     0.16552   10.69364    0.37454
       O     0.29956   10.69431   -0.57136
      H1     1.20349   11.01060   -0.72007
       H    -0.10429    8.78431   -0.48500
       O    -0.08912    7.93191   -0.95421
      H1    -0.34238    8.16184   -1.86214
       H     1.87496   12.09296    3.55761
       O     2.33162   11.50989    2.95633
      H1     2.33207   11.94758    2.10277
       H    -5.11160   13.13942   -1.38033
       O    -5.62579   13.06520   -0.51029
      H1    -5.02440   13.35175    0.18682
       H    -2.37808    9.37485    6.86957
       O    -2.27648    9.55546    5.95139
      H1    -3.01974   10.16570    5.64181
       H     0.42390   12.42094    4.45030
       O     1.01542   13.21136    4.53148
      H1     0.63961   13.87301    3.91792
       H     1.39698    8.30047    3.61979
       O     0.55011    8.56686    3.99590
      H1     0.24611    7.71339    4.29551
       H     3.95644   11.43509   -1.09071
       O     3.08925   11.50777   -1.60173
      H1     3.13927   12.37136   -2.05018
       H    -4.85331    7.03891    2.69633
       O    -5.36687    6.24874    2.59292
      H1    -5.95638    6.50090    3.31603
       H     1.12324    8.79259   -3.52520
       O     0.21380    8.56118   -3.65489
      H1    -0.24976    9.43774   -3.52848
       H    -3.85103   14.95615    5.58283
       O    -2.98580   14.56568    5.61194
      H1    -2.69637   14.45900    4.74235
       H    -3.00262    6.69595    6.24314
       O    -3.57446    7.25060    5.71353
      H1    -3.03276    8.12904    5.72594
       H    -4.00316   12.50456    5.76066
       O    -4.58102   11.84755    5.36428
      H1    -5.13279   11.51781    6.08691
       H     5.29639   12.74945    3.43913
       O     4.58262   13.07719    4.10731
      H1     3.82939   12.46347    3.94574

