117
frame 5 | Written by MDAnalysis XYZWriter (release 2.4.3)
       H    16.53582   14.79702    2.92732
       O    16.61609   14.17041    2.16861
      H1    16.67943   13.29224    2.59556
       H     9.52591   17.46839    2.76939
       O     8.80400   17.99544    3.00244
      H1     8.38326   17.50250    3.68881
       H    17.98858   15.28356   -5.46090
       O    17.25633   15.87719   -5.59938
      H1    16.41159   15.44196   -5.83498
       H    18.78098   17.24663   -8.13222
       O    17.85314   17.35053   -7.85698
      H1    17.79337   16.81749   -7.06771
       H    13.84184   15.90155    2.29724
       O    13.78275   15.04246    1.89506
      H1    14.71777   14.75227    1.86469
       H    12.97987   12.01289   -4.77773
       O    13.35867   12.70969   -4.23171
      H1    12.73803   13.15851   -3.62752
       H    18.80555   14.43329    1.04555
       O    19.24014   15.13234    0.50567
      H1    18.54867   15.83121    0.39137
       H    10.56096   19.33543    1.03674
       O    11.33943   19.54896    1.48667
      H1    11.25477   19.23683    2.39046
       H    14.74064   19.24309   -1.36701
       O    14.77669   19.35740   -2.29832
      H1    14.95905   18.46242   -2.70087
       H    10.80674   18.69208   -6.32529
       O    10.89250   18.31444   -7.20669
      H1    11.35373   17.48390   -6.93855
       H    14.72875   17.88025    3.47856
       O    13.85415   17.51929    3.12982
      H1    13.28677   17.47865    3.90999
       H    16.25891   16.60639   -0.63301
       O    17.09613   17.03410   -0.32958
      H1    17.19564   17.82979   -0.85312
       H     7.40184   17.23651   -2.18438
       O     6.73181   16.60550   -2.41610
      H1     6.79094   15.91297   -1.64256
       H    11.90137   18.42937   -1.83729
       O    12.18401   18.99063   -2.55279
      H1    13.13241   19.12755   -2.50708
       H     7.57944   16.79172    0.55121
       O     7.87060   15.95755    0.12540
      H1     8.79467   15.93510    0.33893
       H    16.79264   19.73067   -9.96765
       O    17.35371   19.93682   -9.21487
      H1    17.81294   19.12139   -8.90662
       H    10.15124   14.32502   -7.59841
       O    11.02916   14.67517   -7.64209
      H1    11.36537   15.09373   -6.80417
       H    14.23334   15.37833    0.03707
       O    14.04625   16.02878   -0.61126
      H1    13.52560   16.65199   -0.08982
       H    12.79346   15.13885   -1.64881
       O    12.56120   14.32901   -2.16018
      H1    11.64311   14.41249   -2.39947
       H    15.82383   19.00442    4.71063
       O    16.07747   18.76845    3.82967
      H1    15.59001   19.48422    3.30359
       H    18.26379   12.75868   -3.59221
       O    17.82557   12.08952   -2.99110
      H1    17.46759   12.55952   -2.23772
       H    10.37941   16.44929   -1.85036
       O    10.79960   17.02426   -1.20685
      H1    10.13310   17.78983   -1.08128
       H     9.66287   15.14421   -3.53086
       O     9.88717   14.72070   -2.72058
      H1     9.16236   14.16268   -2.39407
       H    20.09189   19.32347    5.37144
       O    19.14554   19.42698    5.41448
      H1    18.92188   19.68557    4.45775
       H    11.51746   19.34710    4.74900
       O    10.60692   19.49238    4.37760
      H1    10.18154   18.63719    4.44563
       H    14.44272   13.94728   -5.29399
       O    14.88549   14.65240   -5.78076
      H1    15.03494   14.29566   -6.68422
       H     9.18721   15.91166   -5.67181
       O     9.81330   16.14988   -4.98762
      H1     9.68900   17.09591   -4.84753
       H     8.44617   18.90644    0.10034
       O     9.21119   19.18657   -0.46479
      H1     8.82006   19.94605   -0.85810
       H    13.74310   19.89908   -5.09727
       O    13.99566   19.00773   -5.41848
      H1    13.24491   18.53747   -5.76714
       H    16.92941   17.23112    4.32628
       O    17.35638   16.42455    4.52833
      H1    18.15031   16.67692    4.99916
       H    10.91227   19.20491   -3.93485
       O    10.21834   18.91465   -4.56705
      H1     9.73161   19.66607   -4.78315
       H    11.72774   12.61855    0.51838
       O    11.30907   12.74089   -0.37940
      H1    11.92683   13.28714   -0.91018
       H    14.89813   13.32815   -2.02471
       O    15.22404   12.55128   -1.65517
      H1    14.66793   11.82959   -1.96011
       H    10.64840   16.15495    0.63309
       O    10.30687   15.83462    1.48197
      H1    10.63265   14.91036    1.61201
       H    17.44985   18.11393   -3.48374
       O    18.39566   18.10815   -3.22680
      H1    18.83539   18.51107   -3.96726
       H    12.78238   13.62967    2.18152
       O    12.43303   12.75016    2.09494
      H1    12.76585   12.12353    2.76132
       H    15.15226   18.01979   -4.65987
       O    15.65792   17.41997   -4.09578
      H1    16.21501   16.91581   -4.68356
       H    19.89838   12.93372   -4.70455
       O    19.09784   13.47520   -4.78226
      H1    19.35433   14.23439   -4.25495
       H    13.25932   15.82111   -5.63690
       O    12.56641   16.44514   -5.81022
      H1    12.21214   16.56349   -4.91485

