117
frame 5 | Written by MDAnalysis XYZWriter (release 2.4.3)
       H   -13.14085    0.13280    4.05600
       O   -14.08506    0.10287    4.17674
      H1   -14.29254    0.88754    4.63049
       H    -7.59914   -5.91086    6.98598
       O    -7.69558   -4.98105    7.17591
      H1    -7.08501   -4.44196    6.71678
       H    -9.70121   -1.41090    2.70779
       O    -8.83040   -1.76455    2.86954
      H1    -8.27095   -1.03857    3.15184
       H    -9.02635    3.59866    6.51941
       O    -8.31353    3.51947    5.80253
      H1    -7.85921    2.75792    6.12314
       H   -13.26887   -3.72233   -1.70683
       O   -12.40321   -4.01945   -1.53008
      H1   -11.92613   -3.31362   -1.01359
       H    -6.47962    4.75683    1.29692
       O    -6.85298    4.36926    0.51014
      H1    -7.42711    3.64785    0.83529
       H   -10.21962   -5.23252    3.61901
       O    -9.82278   -5.32009    4.47210
      H1    -8.86507   -5.27696    4.35956
       H   -11.36727    1.50388    2.41088
       O   -11.57579    1.94237    1.53606
      H1   -11.06571    1.36179    0.94245
       H    -3.72671    1.31779    5.04754
       O    -4.62340    1.54714    4.75706
      H1    -5.21620    0.81109    4.76787
       H   -14.10822   -0.54598    2.33725
       O   -13.84282   -0.97885    1.52984
      H1   -14.30991   -1.83349    1.61375
       H   -11.74131   -1.23276    3.75026
       O   -11.39934   -0.31799    3.61861
      H1   -10.76416   -0.05612    4.30309
       H   -12.82672   -3.42775    3.65664
       O   -12.64428   -2.60375    4.10901
      H1   -13.47509   -2.09919    4.44198
       H    -5.25706   -6.03516    5.35297
       O    -5.24778   -5.09009    5.13453
      H1    -5.99279   -4.84821    4.60355
       H   -10.17628   -3.96635    6.17827
       O   -10.90709   -3.33159    6.36062
      H1   -11.48781   -3.25707    5.55605
       H    -8.07699   -6.32316   -0.06165
       O    -8.19412   -5.37185    0.21260
      H1    -7.36741   -5.14593    0.62111
       H    -4.58088    2.67843    0.88569
       O    -4.74959    2.24967    1.67157
      H1    -5.05113    1.39537    1.48131
       H    -6.98508   -1.38168    6.17614
       O    -6.68872   -2.29908    6.11231
      H1    -7.18217   -2.57862    5.33203
       H    -7.05349    3.07304    3.55743
       O    -7.23627    2.53948    2.75203
      H1    -6.36082    2.44963    2.27318
       H   -11.00874    1.83862    7.76709
       O   -11.22439    1.08554    7.17706
      H1   -12.02190    0.74146    7.56415
       H    -5.26496   -0.23091    0.01258
       O    -5.63475   -0.37090    0.94963
      H1    -6.37312   -0.94531    0.86548
       H    -6.23932   -0.89157   -2.91895
       O    -6.57279   -0.42533   -2.16584
      H1    -6.89422   -1.15413   -1.61645
       H   -11.13807    0.39392   -1.64247
       O   -11.79894    0.37427   -2.35475
      H1   -11.71230    1.18520   -2.86564
       H   -10.51615   -6.81928    5.27725
       O   -10.85039   -7.47590    5.93390
      H1   -10.97666   -8.25624    5.50376
       H    -7.57558    0.54506    4.89126
       O    -7.58272    0.31338    3.93943
      H1    -7.50137    1.15719    3.49986
       H   -11.42957   -3.04455    1.03104
       O   -11.71989   -2.27902    0.51220
      H1   -12.50778   -1.83298    0.89597
       H   -11.29010   -4.96408    1.44885
       O   -10.60009   -4.62556    2.04641
      H1    -9.84485   -4.97880    1.57491
       H    -6.58661    0.78462    7.44341
       O    -6.67216    1.06998    6.51675
      H1    -5.74822    1.25507    6.23556
       H    -8.04228   -2.49505   -0.09563
       O    -8.23665   -1.70842    0.35060
      H1    -8.58078   -2.04142    1.19011
       H    -4.77004   -2.12783    5.52744
       O    -3.92113   -1.75827    5.31900
      H1    -3.27585   -2.47853    5.50715
       H    -6.60155   -3.79274    3.08296
       O    -7.22456   -3.64334    3.78620
      H1    -7.82452   -2.98218    3.40085
       H   -10.04634   -0.33961    7.12021
       O    -9.51991   -1.11005    7.15327
      H1   -10.00253   -1.92427    6.88948
       H    -9.75021    4.99759    3.90450
       O   -10.24276    4.16532    3.86989
      H1    -9.63476    3.50939    4.18208
       H    -7.42479   -3.69205   -2.68146
       O    -7.59615   -3.52599   -1.77976
      H1    -7.82634   -4.38631   -1.42836
       H    -3.96059   -1.79006    3.56002
       O    -3.90692   -2.10247    2.56768
      H1    -4.50106   -1.60013    2.02311
       H    -8.20103   -0.78128    8.56546
       O    -7.44737   -0.51058    9.08738
      H1    -7.73977   -0.38216   10.03777
       H    -9.66567    3.72943    0.56402
       O    -9.14155    3.05813    0.03513
      H1    -8.72084    3.51874   -0.75870
       H   -12.41831   -5.41902   -0.43985
       O   -12.11291   -5.95944    0.32662
      H1   -11.81686   -6.78786   -0.07113
       H    -9.39045   -0.35357   -0.03748
       O    -9.97770    0.38546   -0.12900
      H1    -9.40063    1.16175   -0.06179
       H    -5.41017   -5.06991    1.87029
       O    -5.87045   -4.44733    1.25181
      H1    -5.46987   -4.51680    0.36533

