117
frame 9 | Written by MDAnalysis XYZWriter (release 2.4.3)
       H   -18.23847    1.06519   -5.45276
       O   -17.59456    1.78052   -5.70973
      H1   -17.04708    1.46344   -6.46556
       H   -19.45132    3.59971   -7.29562
       O   -19.32415    3.83066   -6.37238
      H1   -18.63166    3.21844   -6.17780
       H   -17.17060   -0.18091  -10.22340
       O   -16.23899   -0.29118  -10.48962
      H1   -15.70944    0.23558   -9.90501
       H   -13.04945    1.79092   -5.87832
       O   -12.16106    2.19618   -5.77956
      H1   -11.55582    1.58992   -6.07410
       H   -19.15194   -2.61585  -12.18964
       O   -19.40277   -2.87780  -13.08835
      H1   -19.82034   -3.74892  -13.10214
       H   -17.38869   -1.59977  -14.12306
       O   -16.80389   -1.00454  -13.65978
      H1   -16.33499   -1.64377  -13.14161
       H   -15.67685   -1.95208  -11.46611
       O   -15.16549   -2.69776  -11.82308
      H1   -15.74527   -3.24346  -12.42395
       H   -17.97982    3.61905  -10.40086
       O   -17.28738    3.47763  -11.08979
      H1   -16.69770    2.80362  -10.62670
       H   -20.23148   -2.99457  -10.56587
       O   -19.27713   -2.89867  -10.39796
      H1   -18.89985   -3.75314  -10.08591
       H   -15.77684   -3.37117   -8.85689
       O   -15.26195   -4.03597   -9.35669
      H1   -15.20818   -3.55754  -10.20595
       H   -15.90388   -2.80904   -6.41146
       O   -16.10098   -2.37029   -7.22793
      H1   -15.73674   -1.44522   -7.09887
       H   -14.48640    1.80993  -11.57670
       O   -14.41918    2.48158  -10.89133
      H1   -14.85411    3.22430  -11.26037
       H   -13.45123    1.59985   -9.32208
       O   -12.89412    1.22917   -8.57517
      H1   -12.03110    1.04533   -9.01187
       H   -20.11196    0.41864  -10.35933
       O   -19.43147    0.17682   -9.69691
      H1   -19.39506   -0.78234   -9.79143
       H   -15.87760    2.14717   -4.74449
       O   -14.91833    2.19593   -4.58456
      H1   -14.61394    2.87263   -5.16347
       H   -15.64712    5.53919  -13.99810
       O   -15.13969    5.49281  -13.17813
      H1   -14.66762    6.33320  -13.08856
       H   -18.72251    9.84784   -6.25159
       O   -19.23960   10.37491   -5.58100
      H1   -19.46734    9.61904   -5.00853
       H   -19.44814   -2.51659   -7.09421
       O   -18.85557   -2.30432   -6.31172
      H1   -17.92773   -2.23729   -6.70332
       H   -15.18103    7.14370   -9.48013
       O   -15.52767    7.81019  -10.06720
      H1   -16.11539    7.30787  -10.62545
       H   -14.79917    6.56787   -7.24753
       O   -14.83833    6.10465   -8.07614
      H1   -13.90591    6.00494   -8.34713
       H   -13.49251    3.11035   -7.38451
       O   -14.32496    3.45188   -7.07627
      H1   -14.46519    4.37958   -7.30135
       H   -13.46531   -0.13812   -3.16330
       O   -14.38073   -0.14141   -3.39287
      H1   -14.59090    0.79888   -3.41244
       H   -12.19541    6.64693   -9.36693
       O   -12.24659    5.67982   -9.28952
      H1   -11.60094    5.49626   -8.59341
       H   -18.21276    8.42749   -7.35327
       O   -17.49367    8.48371   -6.71863
      H1   -16.80259    9.08716   -7.05998
       H   -15.34669    2.14566   -7.77856
       O   -15.97856    1.46806   -7.97401
      H1   -15.73596    0.76679   -7.32538
       H   -17.96361    1.99400  -12.31632
       O   -18.14793    1.49491  -13.15652
      H1   -17.75104    0.59271  -13.27400
       H   -19.00946    2.10463   -8.80814
       O   -19.02740    3.06399   -8.99928
      H1   -19.84836    3.33381   -9.43007
       H   -17.68332    5.31832   -2.36871
       O   -17.08694    4.82479   -2.94478
      H1   -17.23337    5.10308   -3.87364
       H   -13.75010   -0.10843   -6.46226
       O   -14.66216   -0.19288   -6.23981
      H1   -14.61271   -0.10442   -5.28589
       H   -16.56000    5.96017  -12.05659
       O   -17.23001    6.61085  -11.78841
      H1   -17.78379    6.13761  -11.18429
       H   -19.20480    5.57344   -1.31690
       O   -18.94608    6.43307   -1.63540
      H1   -19.27559    6.55079   -2.53718
       H   -13.44431    4.45204  -13.28126
       O   -12.78536    3.79313  -13.10967
      H1   -13.12353    3.36061  -12.31978
       H   -16.93660    1.67506  -14.52754
       O   -16.30886    1.64131  -15.26405
      H1   -16.18434    2.58948  -15.53770
       H   -17.80429    6.82915   -5.87974
       O   -18.00201    5.96998   -5.45477
      H1   -18.43103    5.46594   -6.14133
       H   -14.74700    1.51540  -14.21352
       O   -13.88098    1.30627  -13.76434
      H1   -13.42503    2.18225  -13.85603
       H   -17.85189    2.87131   -2.97924
       O   -18.31906    2.26139   -2.39531
      H1   -18.72956    1.59095   -2.93097
       H   -18.93471    5.50680  -14.15938
       O   -18.29789    6.26627  -14.34264
      H1   -17.92322    6.53101  -13.43900
       H   -13.13016    7.75856   -5.91275
       O   -13.81878    7.13675   -5.68095
      H1   -14.16846    7.47277   -4.85951
       H   -15.48486    8.90933   -8.26904
       O   -15.18753    9.57437   -7.64038
      H1   -15.12962   10.47790   -8.03510

