117
frame 6 | Written by MDAnalysis XYZWriter (release 2.4.3)
       H    -4.40767    4.15094   11.89628
       O    -5.24948    3.86856   12.18343
      H1    -5.06494    2.88252   12.28482
       H     5.98451    2.77707   11.01147
       O     5.12443    2.34757   10.85156
      H1     5.13921    1.56591   11.34875
       H    -3.81941   -2.85019   11.72146
       O    -3.52655   -1.96777   11.36624
      H1    -3.46000   -1.51453   12.22812
       H     2.56574    3.59166    9.39571
       O     3.09014    4.06788   10.05586
      H1     3.86011    3.43447   10.23701
       H     3.39926   -2.43253   12.74747
       O     3.51596   -2.99501   11.95370
      H1     2.87501   -2.64424   11.33773
       H    -1.25345    3.89451   13.19615
       O    -1.36907    4.06708   14.12225
      H1    -0.74497    3.47170   14.59831
       H     4.78021   -3.20789    8.35982
       O     5.33018   -3.28189    9.12797
      H1     4.77085   -3.89889    9.67845
       H     2.96006   -2.21484    7.03231
       O     3.52771   -2.99219    6.94708
      H1     2.95155   -3.73563    7.20602
       H     2.78571    6.40498    6.40142
       O     3.07520    6.15073    5.53136
      H1     3.82523    5.51599    5.75384
       H     4.64421   -0.04365    5.26949
       O     3.93604    0.62036    5.03342
      H1     4.02526    1.44162    5.57120
       H     0.04837   -1.93936    2.96341
       O     0.72364   -2.35934    3.51886
      H1     0.76205   -1.94499    4.36619
       H    -0.94958    4.19329    9.48171
       O    -1.46649    3.82646    8.74378
      H1    -2.02233    3.14585    9.17467
       H    -1.50090   -1.00053   13.97951
       O    -2.39907   -0.99065   13.64430
      H1    -2.80054   -0.14791   13.92454
       H     4.34028    2.88153   14.79040
       O     4.44578    1.95777   14.62404
      H1     3.71508    1.62238   15.19336
       H    -0.15067   -3.44155    8.30026
       O    -0.92008   -2.90263    8.54735
      H1    -1.02437   -2.24209    7.86393
       H     0.68811    5.91926    9.48538
       O     0.08573    5.56971   10.11692
      H1    -0.02036    6.27700   10.77969
       H     0.05135    1.03993   14.86285
       O     0.11261    1.84633   15.38555
      H1    -0.38356    1.80357   16.20112
       H     2.46036   -0.23619    9.97387
       O     2.61031   -1.19190    9.73643
      H1     3.51850   -1.29257    9.48335
       H     3.22565   -0.78220   13.59037
       O     3.54431   -1.31447   14.31660
      H1     4.37948   -0.96480   14.60279
       H    -1.46482    5.74998    7.69816
       O    -1.28780    6.63269    7.35224
      H1    -0.58420    6.42111    6.66523
       H     0.16499   -1.94448   14.83344
       O     0.24776   -0.98862   14.94300
      H1     0.58176   -0.83787   15.83457
       H    -1.62946   -1.13471   11.33077
       O    -0.81952   -1.28690   10.81529
      H1    -1.06396   -1.75784    9.99514
       H     0.66999   -0.81547    6.40137
       O    -0.18686   -1.02182    6.04059
      H1    -0.43598   -0.28703    5.47538
       H     6.17141    0.43256    8.13379
       O     5.30666    0.52369    8.59379
      H1     5.51965    1.27947    9.19682
       H     3.10401    0.05376    6.64371
       O     2.37756   -0.40057    7.10163
      H1     2.70707   -0.58808    7.99584
       H     2.97004    4.90681   11.75288
       O     3.14870    5.43144   12.57221
      H1     2.28792    5.55829   13.04518
       H    -0.67736    3.78390    6.90517
       O     0.03053    3.44969    6.36691
      H1     0.18629    4.15963    5.76337
       H     6.29718   -0.63555   12.32617
       O     6.25462    0.25958   12.53343
      H1     5.69407    0.35372   13.29986
       H     1.17336    3.05984    7.63177
       O     1.86677    2.62421    8.18835
      H1     2.68789    2.67641    7.70976
       H     0.11738    0.24681   10.66324
       O     0.81867    1.01018   10.61179
      H1     0.83672    1.39291    9.68246
       H    -0.19504   -4.17999   11.82768
       O     0.65713   -3.60439   11.75575
      H1     0.25688   -2.81967   11.37234
       H     2.79786    7.40394    8.40694
       O     2.02495    7.28720    7.80269
      H1     2.04345    8.00422    7.12811
       H     3.53778    5.76873    9.54234
       O     4.03678    6.58760    9.47881
      H1     4.17888    7.08047   10.32139
       H    -0.32892    2.03129    4.88780
       O    -0.72466    1.50994    4.14896
      H1    -0.19962    1.58029    3.33938
       H    -2.43552    2.61674   14.49489
       O    -3.07224    1.87229   14.47842
      H1    -2.96678    1.42977   15.37098
       H     4.82420    2.05269    7.46351
       O     4.29054    2.61462    6.91942
      H1     4.91229    3.23051    6.44339
       H     3.45342    1.36350   12.94648
       O     2.88526    0.74241   12.49641
      H1     2.23789    1.24088   11.94343
       H    -0.20390    3.86133   11.03290
       O    -0.87966    3.27656   11.37655
      H1    -0.49740    2.42617   11.22886
       H    -4.37900    2.03058    9.49243
       O    -3.46856    1.86511    9.71847
      H1    -3.42471    1.17708   10.42061

