117
frame 7 | Written by MDAnalysis XYZWriter (release 2.4.3)
       H    17.86073    3.91387   -6.56214
       O    18.50202    4.08612   -5.84118
      H1    18.82931    3.25552   -5.52972
       H    15.80582    8.61553   -7.32438
       O    15.29986    9.34494   -6.95677
      H1    14.63280    8.93898   -6.38794
       H    19.11566    4.68164   -9.17593
       O    19.12771    5.55104   -9.65000
      H1    19.24000    5.47645  -10.63917
       H    14.03936    4.76157    3.02724
       O    14.43196    4.43049    2.21929
      H1    14.68222    3.50501    2.24475
       H    13.59507    8.92743    2.55725
       O    13.33721    8.09194    2.08698
      H1    13.66471    8.05156    1.21558
       H    18.04945   10.97912   -2.30680
       O    17.44514   10.71357   -3.01106
      H1    16.66858   10.31674   -2.62709
       H    14.10509    3.37994   -6.32646
       O    14.05015    3.72575   -5.39059
      H1    13.43843    4.46221   -5.28634
       H    10.65399    3.92522   -2.85657
       O    10.68193    4.88064   -3.08256
      H1    11.22119    5.29547   -2.35559
       H    16.89002    6.78100   -5.42546
       O    16.85920    6.61887   -4.43297
      H1    16.70486    5.66317   -4.30770
       H    17.11609    2.78564    1.41019
       O    17.55957    3.56975    1.06656
      H1    18.43123    3.24035    0.80778
       H    15.07761   -1.73206   -2.43474
       O    15.36868   -0.88030   -2.69254
      H1    15.10351   -0.23440   -2.00194
       H    14.78660    1.03453   -0.05933
       O    14.51538    1.68209   -0.76772
      H1    15.10787    2.40990   -0.55577
       H    15.49558    1.95568    3.26280
       O    15.67138    1.82486    2.33727
      H1    15.65845    0.91654    2.01558
       H    17.66440    9.67343    2.79121
       O    16.70668    9.58412    3.01980
      H1    16.70020    8.95681    3.79927
       H    17.71661   10.34275   -4.83284
       O    17.79287    9.86856   -5.66998
      H1    16.89447    9.81653   -5.90175
       H    19.40714   10.15234   -0.32663
       O    19.44086    9.25354    0.03338
      H1    18.72363    8.72254   -0.21758
       H    12.74119    0.57126   -1.35293
       O    12.15117    0.40971   -2.05230
      H1    11.99456   -0.54422   -2.00489
       H    12.07374    3.12060    0.99009
       O    11.61409    2.55642    1.64112
      H1    11.29309    3.17062    2.31922
       H    20.01214    2.47267   -7.96841
       O    19.68771    2.81977   -8.86387
      H1    18.80210    2.48435   -8.95872
       H    16.37110    4.16078   -0.35278
       O    15.78579    4.12146   -1.13591
      H1    16.26746    3.84489   -1.91487
       H    13.42774    1.99822   -4.76199
       O    12.91035    1.16899   -4.59255
      H1    12.86440    0.89761   -3.67042
       H    19.96511   12.18903   -1.37162
       O    19.30360   11.63492   -0.97667
      H1    18.81742   12.31971   -0.41357
       H    18.39634    4.64708   -2.03657
       O    18.81153    5.42732   -1.78184
      H1    18.69614    6.12195   -2.42290
       H    18.18469   -1.73205   -3.66209
       O    17.58501   -2.45586   -3.74615
      H1    16.75348   -2.07830   -3.53326
       H    11.85266    5.73050   -4.50371
       O    12.42972    5.83719   -5.25765
      H1    13.10448    6.52813   -5.05845
       H    15.55916    3.86943   -4.46062
       O    16.46050    3.97337   -4.02426
      H1    17.03823    3.73267   -4.77434
       H    15.17577   -1.00884    0.89505
       O    14.76238   -0.18185    1.03161
      H1    14.57532   -0.24057    1.96578
       H    19.32697   -2.16090   -0.77480
       O    18.71382   -2.51782   -0.10687
      H1    18.86782   -2.10351    0.75070
       H    16.89528    6.16261   -7.52204
       O    17.11673    7.07163   -7.24864
      H1    18.06636    7.31522   -7.45797
       H    15.96923    5.35458    2.53151
       O    16.68043    6.02669    2.74956
      H1    17.20147    5.48832    3.35717
       H    19.62823   -0.25846   -4.63448
       O    18.99480    0.25593   -4.14481
      H1    18.20301    0.25970   -4.70282
       H    15.98540   -0.09959   -5.73020
       O    16.50494    0.26530   -4.95825
      H1    15.98372    0.05962   -4.14881
       H    18.16938    9.15325   -2.86251
       O    18.46187    8.19815   -2.86097
      H1    17.96184    7.77509   -3.55453
       H    16.05219    3.84875   -7.88345
       O    16.78484    4.44846   -7.86463
      H1    16.90510    4.61692   -8.79399
       H    15.86730    7.76301    0.12249
       O    14.93813    7.61305   -0.13204
      H1    14.94864    6.89178   -0.74543
       H    13.78189    9.81612   -2.01935
       O    14.68886    9.54235   -1.92150
      H1    14.73183    8.87672   -1.22716
       H    15.42973    7.37561   -4.59028
       O    14.45632    7.65210   -4.73459
      H1    14.23046    8.49223   -4.26568
       H    13.21440    3.53961   -0.45228
       O    12.82766    4.22586    0.10098
      H1    13.43186    4.46778    0.83313
       H    17.44212    6.77004    1.19182
       O    17.58147    7.19680    0.28182
      H1    17.61238    6.43307   -0.25179

