117
frame 5 | Written by MDAnalysis XYZWriter (release 2.4.3)
       H     0.00447  -12.77947   12.58240
       O     0.48250  -12.88706   11.75949
      H1     0.28436  -12.08888   11.21867
       H     1.52774   -7.35410   14.24193
       O     2.05648   -6.87160   14.86786
      H1     2.99378   -6.91542   14.55610
       H    -3.14265  -15.50973   15.61886
       O    -3.11104  -16.29266   16.13026
      H1    -3.98229  -16.54948   16.43060
       H    -0.08544   -8.54980   12.43223
       O     0.55362   -7.88178   12.67592
      H1     1.33824   -8.20358   12.15233
       H    -0.90500  -16.66540   18.71604
       O    -1.65216  -17.13457   18.42798
      H1    -2.10346  -16.69320   17.70599
       H    -2.13272   -9.36832   12.83215
       O    -1.42445   -9.79744   12.33303
      H1    -1.94365   -9.84279   11.45241
       H    -2.60599  -11.08411   15.48512
       O    -3.55572  -11.19475   15.33208
      H1    -3.70034  -10.82282   14.45974
       H    -5.27146  -13.29069   17.11678
       O    -4.95874  -12.41263   17.25999
      H1    -4.35596  -12.26820   16.50944
       H    -2.37581   -8.16789   16.55455
       O    -2.41957   -8.83218   17.22962
      H1    -1.64431   -8.63627   17.82754
       H    -0.54712  -11.44350   17.19356
       O    -1.07571  -11.03245   16.51358
      H1    -1.49452  -10.22064   16.79521
       H    -6.44315   -8.47891   17.82045
       O    -6.50866   -8.92015   18.68956
      H1    -6.99702   -9.80416   18.62222
       H    -3.94025  -13.67649   11.90790
       O    -4.38273  -13.62669   12.77885
      H1    -5.11183  -14.25106   12.75548
       H     6.48029  -10.90320   19.20919
       O     6.16908  -10.22571   18.54928
      H1     6.93028   -9.82805   18.14510
       H    -1.71152   -5.62357   15.58405
       O    -1.75177   -6.52380   15.20258
      H1    -1.50900   -6.52282   14.31244
       H     4.92933   -9.15825   14.65291
       O     5.47438   -8.95175   13.88165
      H1     5.02644   -9.18204   13.08525
       H    -0.92150  -11.11615   13.47091
       O    -0.65893  -11.92036   13.96043
      H1    -0.87467  -11.64469   14.88930
       H     1.44531  -16.35308   19.99186
       O     0.68135  -16.23760   19.37996
      H1     1.18755  -16.27683   18.55318
       H    -5.44300  -11.72234   12.98248
       O    -5.62140  -10.76925   12.99195
      H1    -6.00343  -10.59622   13.90587
       H     3.81359   -9.40189   16.66068
       O     4.36258   -9.99010   16.07290
      H1     5.06382  -10.29309   16.59681
       H     2.81342   -9.38133   19.85634
       O     1.93969   -9.61753   19.51262
      H1     2.17316   -9.93996   18.66241
       H    -3.12036  -14.63371   13.17872
       O    -2.30400  -15.12508   13.14286
      H1    -2.36179  -15.43593   12.23226
       H    -6.11029  -10.93666   16.25002
       O    -6.62057  -10.28520   15.80371
      H1    -7.53926  -10.40955   16.06219
       H     4.34898   -7.37000   19.87733
       O     4.26075   -6.72724   19.13479
      H1     4.77051   -7.06679   18.41025
       H     0.67955  -13.92094   14.79092
       O     0.38229  -14.85975   14.84091
      H1    -0.34093  -14.91054   14.16962
       H    -4.38396   -9.26604   13.96137
       O    -3.74246   -8.61637   13.70110
      H1    -3.79966   -7.92303   14.39030
       H     1.64099  -17.36207   16.79146
       O     1.79435  -16.39837   16.78740
      H1     1.19305  -15.96215   16.11024
       H     0.29898   -7.21927   18.21432
       O    -0.16666   -7.92012   18.70624
      H1     0.51146   -8.44656   19.14212
       H     3.43615  -13.18793   15.84522
       O     3.00629  -12.52908   16.36552
      H1     3.33264  -11.65488   16.17139
       H    -0.12209   -5.03667   17.69495
       O     0.66752   -5.49344   17.44892
      H1     0.39987   -5.77409   16.56309
       H     5.61324  -11.85250   17.69589
       O     5.50072  -12.76640   17.35028
      H1     4.56388  -12.80524   17.07654
       H    -6.12238  -14.02477   18.91794
       O    -6.17150  -14.65929   18.14994
      H1    -7.14974  -14.81423   18.20084
       H     3.61707  -15.40049   16.02718
       O     4.27809  -14.84132   15.60105
      H1     4.32567  -15.05934   14.64587
       H    -2.70897  -17.38097   14.68043
       O    -3.01728  -18.12625   14.13627
      H1    -2.23470  -18.63002   13.91995
       H     2.19944  -12.55081   11.35015
       O     3.11186  -12.27683   11.14510
      H1     3.20949  -12.40968   10.20227
       H    -5.64222   -6.70888   15.35386
       O    -4.66981   -6.56427   15.58672
      H1    -4.73182   -6.27157   16.49121
       H    -7.91188  -11.78877   18.12825
       O    -7.68432  -11.46127   19.04528
      H1    -6.96037  -12.04601   19.25764
       H     2.41856   -7.69956   16.44432
       O     2.49811   -8.39396   17.12221
      H1     2.68452   -7.83906   17.92745
       H     0.03807  -15.10405   10.20716
       O    -0.83816  -14.92398   10.52103
      H1    -0.63938  -14.16527   11.10608
       H     1.35480  -13.36989   17.60615
       O     0.63460  -12.94973   18.15627
      H1     1.16707  -12.79423   18.96441

