117
frame 3 | Written by MDAnalysis XYZWriter (release 2.4.3)
       H   -18.63884   -0.40365   -5.34703
       O   -18.64347    0.55571   -5.35171
      H1   -18.09469    0.72436   -4.55167
       H   -14.22267    2.10581   -5.59909
       O   -13.42593    1.67501   -5.23481
      H1   -12.86867    1.48554   -5.95055
       H   -13.20816    0.39275    3.81793
       O   -14.08258    0.74054    3.59543
      H1   -14.47115    0.94288    4.44750
       H   -13.58817    5.27763   -2.18865
       O   -13.80711    5.79417   -2.98590
      H1   -13.80533    6.74509   -2.74844
       H   -19.55849    4.90681    2.16402
       O   -18.67079    4.49128    2.08525
      H1   -18.74964    3.76473    1.41877
       H   -14.59777    8.66107   -1.80100
       O   -13.87980    8.63475   -2.48094
      H1   -14.00183    9.45631   -3.02136
       H   -19.29748    1.04749    4.42562
       O   -18.70241    1.26575    3.64285
      H1   -18.29538    2.14395    3.84635
       H   -10.16532    2.71190   -5.80155
       O    -9.73644    2.59338   -4.90098
      H1   -10.40237    2.94977   -4.31994
       H   -15.66205   -3.62352   -4.14685
       O   -15.86879   -2.70317   -4.28404
      H1   -15.01746   -2.31097   -4.59538
       H   -11.30144    1.93377    0.94968
       O   -12.24242    2.24018    0.83390
      H1   -12.56924    1.74175    0.06612
       H   -14.28264   -0.59481    2.61630
       O   -14.38030   -1.38780    2.01026
      H1   -14.72388   -2.07827    2.60223
       H   -16.24024   -1.10616   -0.19635
       O   -16.51833   -0.79340    0.64012
      H1   -15.74219   -1.05560    1.16584
       H   -17.23852    4.36650   -4.18005
       O   -16.61797    4.05601   -3.51954
      H1   -15.78779    4.42895   -3.81791
       H   -17.20892    7.27211   -3.95846
       O   -17.94759    7.78970   -3.63170
      H1   -17.70527    8.40086   -2.93810
       H   -12.97204    5.53582   -6.75971
       O   -12.90530    4.55717   -6.74809
      H1   -12.88460    4.19084   -7.61402
       H   -16.10691    3.24902   -6.55684
       O   -15.23344    2.86076   -6.73020
      H1   -14.63983    3.64498   -6.67049
       H   -13.40235   -1.08245   -3.84689
       O   -13.61991   -1.23552   -4.78359
      H1   -13.94723   -0.40264   -5.06352
       H   -17.34511    6.45374   -6.27616
       O   -16.45368    6.36933   -5.85674
      H1   -15.94326    6.12631   -6.63594
       H   -14.76678    1.87495    1.95178
       O   -15.45859    2.37476    1.53235
      H1   -15.52642    2.08675    0.61634
       H   -15.27323    8.07788    0.81071
       O   -15.16662    8.64144    0.03979
      H1   -16.02862    8.96426   -0.20253
       H   -13.03410    7.00573    3.17423
       O   -13.55149    7.34184    2.49540
      H1   -13.05637    7.14276    1.69479
       H   -11.07519    1.03846   -1.55924
       O   -11.94328    1.33179   -1.76662
      H1   -11.92756    2.08099   -2.38580
       H   -18.87494    4.75083   -1.36001
       O   -18.13236    4.21393   -1.13878
      H1   -17.67555    4.09157   -1.99897
       H   -10.09011    5.56810    1.81667
       O   -10.50596    4.89368    1.25143
      H1   -10.49491    4.17623    1.87507
       H   -11.99620   -2.98613    1.18961
       O   -11.88120   -2.03237    1.14664
      H1   -12.66490   -1.66369    1.57777
       H   -17.60515    4.10823    3.32742
       O   -16.87355    3.51738    3.68072
      H1   -16.46567    3.12514    2.86669
       H   -19.44232   -0.51827    0.66767
       O   -19.08765   -1.40132    0.51685
      H1   -18.08576   -1.27270    0.54548
       H   -12.99349    3.64193   -0.13176
       O   -13.43762    4.29740   -0.71408
      H1   -14.11108    4.74162   -0.17615
       H   -12.30427    3.08587   -4.20778
       O   -11.88475    3.59903   -3.48659
      H1   -12.37323    4.38700   -3.31776
       H   -16.11645   -2.59120   -2.62067
       O   -16.49053   -2.59512   -1.72398
      H1   -17.47541   -2.61002   -1.94794
       H   -15.21402    6.63869    2.45749
       O   -16.05502    6.30799    2.79461
      H1   -16.36143    5.63501    2.17037
       H   -17.46319    4.74826   -6.45113
       O   -17.66909    3.83376   -6.20559
      H1   -18.48330    3.57791   -6.58812
       H   -13.17122    0.10634   -1.99999
       O   -13.88445   -0.62343   -2.16402
      H1   -13.49880   -1.33055   -1.65017
       H   -14.98052    1.21685   -1.38486
       O   -15.63050    1.87397   -1.11050
      H1   -15.44614    2.72459   -1.56716
       H   -18.24115    2.31409   -0.24840
       O   -18.41730    2.02505    0.67967
      H1   -17.69716    1.44451    0.85598
       H   -15.76572    1.08664   -3.31834
       O   -16.14074    0.52705   -3.97763
      H1   -16.29975   -0.22416   -3.44998
       H   -19.84970    7.85166    0.30647
       O   -19.08972    7.29627    0.27270
      H1   -19.30812    6.60509   -0.38107
       H   -12.12278    6.11974    0.19122
       O   -12.01180    7.05537    0.16988
      H1   -11.07715    7.22273    0.50111
       H   -15.82254    4.16210    1.01242
       O   -16.00156    4.99261    0.53821
      H1   -16.87731    4.86073    0.12119

