117
frame 7 | Written by MDAnalysis XYZWriter (release 2.4.3)
       H     8.80005    4.62400  -13.51351
       O     9.13226    4.73796  -12.60765
      H1     8.54936    5.24937  -12.08341
       H     8.77381    8.58170  -12.82964
       O     9.78615    8.57785  -12.96910
      H1    10.09163    8.22604  -12.08567
       H    13.00906    9.03858  -13.98269
       O    12.56465    9.89548  -14.09692
      H1    13.22779   10.55334  -13.72636
       H     8.85196   13.48399  -12.01382
       O     8.39274   13.90910  -12.72539
      H1     7.52918   13.41652  -12.73292
       H    12.12742    4.48720   -8.12903
       O    11.42464    4.51091   -7.53253
      H1    11.66489    5.01535   -6.76597
       H    13.43656   11.18880  -11.77519
       O    13.82527   11.91818  -12.31631
      H1    13.49978   12.70171  -11.91021
       H    14.52465    8.77010   -8.71632
       O    14.44482    8.09941   -9.39309
      H1    13.88381    8.59406  -10.02525
       H     9.51377   11.12553   -8.03575
       O     9.84063   12.03602   -8.27583
      H1     9.63025   12.56249   -7.49753
       H    13.47432    7.57877  -17.07163
       O    14.10505    7.84084  -17.76090
      H1    14.42291    7.00637  -18.13903
       H    12.92426    3.83844  -13.58776
       O    12.65663    4.02594  -12.68589
      H1    11.73455    4.03894  -12.77390
       H    10.10522   12.34045  -10.24906
       O    10.26996   12.96122  -10.95193
      H1    10.47469   12.36551  -11.72575
       H    12.11705    9.64614  -10.88118
       O    13.00133    9.97941  -10.68280
      H1    12.97213   10.53676   -9.90794
       H     4.29769    9.39922  -11.60890
       O     5.19574    8.97490  -11.33169
      H1     5.90393    9.57453  -11.65767
       H     7.55903    8.45086  -17.48602
       O     8.40313    8.93962  -17.46755
      H1     8.85875    8.70650  -18.34013
       H    10.89896    6.66658  -16.21396
       O    11.55736    6.18286  -16.75258
      H1    11.84224    5.35274  -16.38604
       H    14.47050    7.10014  -12.53950
       O    13.59330    7.41293  -12.75659
      H1    12.97302    7.14459  -12.08793
       H     8.19893    4.44860  -16.23958
       O     8.02916    4.93143  -15.47364
      H1     8.48796    5.77747  -15.65573
       H     4.44483    6.44144  -13.09209
       O     4.80867    5.62243  -12.70760
      H1     4.30715    5.45083  -11.93707
       H     7.54371    6.75289  -10.27859
       O     7.54063    5.93951  -10.80063
      H1     6.67727    5.97799  -11.27710
       H    10.32858    8.90622   -8.79407
       O    10.53069    8.72845   -9.72882
      H1    10.80346    7.79400   -9.78140
       H    13.28045   11.98875   -7.91063
       O    12.79725   11.19595   -8.18547
      H1    11.86376   11.30711   -7.98586
       H     8.61267    2.23794  -10.53323
       O     9.07856    2.08129  -11.44412
      H1     9.41973    2.93509  -11.74828
       H     9.71853    9.16873   -6.53624
       O     9.39902    9.30384   -7.44607
      H1     8.70382    8.68408   -7.68654
       H    11.03213   10.85976  -13.73399
       O    10.29782   11.13778  -13.17089
      H1    10.13812   10.28049  -12.77531
       H     8.81689    6.00701   -6.27984
       O     8.91718    5.64513   -7.14937
      H1     9.77096    5.15256   -7.15636
       H     8.23745    6.76657   -8.13164
       O     7.65501    7.44907   -8.55857
      H1     6.74320    7.42516   -8.31419
       H    10.65653    5.82546  -11.72603
       O    11.28988    6.48687  -11.36510
      H1    11.89886    5.95598  -10.81737
       H     9.08324    7.94629  -16.10841
       O     9.41470    7.22511  -15.57672
      H1     9.65559    7.55948  -14.72891
       H     7.24572   11.08390  -11.04716
       O     7.12021   10.76984  -11.93174
      H1     6.58438   11.51982  -12.25537
       H    13.02628    3.24712  -15.76682
       O    12.28610    3.81763  -15.51776
      H1    11.53562    3.35737  -15.77507
       H     5.10099    8.76973   -9.34345
       O     4.91519    8.37895   -8.45752
      H1     4.17893    7.74968   -8.50912
       H     6.48796   11.02075  -15.36176
       O     5.75461   10.44595  -15.11857
      H1     5.85812   10.32166  -14.11302
       H     4.91986    8.48279  -17.26806
       O     5.61948    8.16873  -16.77729
      H1     5.70967    8.77396  -16.03600
       H     5.83679   12.85442  -10.05219
       O     6.81989   12.68909   -9.97871
      H1     6.91136   12.43752   -9.07935
       H     6.88787    6.96690  -14.00023
       O     7.00225    7.84469  -13.68665
      H1     6.26482    7.96207  -13.06024
       H    11.53166   10.28229  -17.51896
       O    12.20127   10.79540  -17.02550
      H1    12.26482   10.30337  -16.20769
       H    15.92539    5.35842  -14.58796
       O    15.38539    4.59637  -14.33550
      H1    14.68577    4.84927  -13.77669
       H    13.62674    6.58253   -9.43328
       O    13.31741    5.69414   -9.77545
      H1    14.02043    5.22725  -10.20543
       H     9.17315   10.96197  -14.57840
       O     8.72331   11.08075  -15.44840
      H1     8.78112   10.19948  -15.91762

