117
frame 9 | Written by MDAnalysis XYZWriter (release 2.4.3)
       H   -16.11538   13.16360    5.19493
       O   -16.61075   13.49534    4.44970
      H1   -16.04347   13.07018    3.76354
       H   -12.25827    6.57246   -4.45001
       O   -11.37119    6.83153   -4.10209
      H1   -11.53994    6.85741   -3.10791
       H   -16.83727   12.21719   -4.31073
       O   -17.66282   12.63898   -4.08286
      H1   -18.30410   12.12845   -4.57170
       H   -15.24773    5.13617   -2.44342
       O   -14.33612    5.22907   -2.06897
      H1   -14.16691    6.16660   -2.02958
       H   -13.20817    9.38801   -0.21950
       O   -12.72460    8.68661   -0.65909
      H1   -12.47583    8.15614    0.10969
       H   -15.30632    8.48607   -3.04768
       O   -14.47968    7.99924   -2.95965
      H1   -13.86276    8.46192   -2.42064
       H   -16.75490    5.73445    3.32971
       O   -16.77121    4.95088    3.86544
      H1   -16.39302    5.28001    4.67774
       H   -16.85082   14.78838    0.01870
       O   -16.65800   14.23652    0.76039
      H1   -17.48506   14.19197    1.18632
       H   -15.49637   13.29369    1.91692
       O   -15.09570   12.74863    2.58468
      H1   -14.74443   11.99669    2.12518
       H   -14.00115   13.62326   -2.22263
       O   -13.79232   12.87317   -1.65955
      H1   -14.53738   12.24999   -1.72089
       H   -18.72251    9.84784   -6.25159
       O   -19.23960   10.37491   -5.58100
      H1   -19.46734    9.61904   -5.00853
       H   -16.82411   10.01316   -3.53733
       O   -16.87838    9.03488   -3.55741
      H1   -16.97803    8.82785   -4.49155
       H   -18.21276    8.42749   -7.35327
       O   -17.49367    8.48371   -6.71863
      H1   -16.80259    9.08716   -7.05998
       H   -19.19372    7.08129    4.21599
       O   -19.03056    7.60103    5.03992
      H1   -18.05890    7.60160    5.15736
       H   -11.58134   10.94092   -2.87914
       O   -12.22474   11.27409   -3.48478
      H1   -12.92039   11.82106   -3.07539
       H   -15.58511    3.79090    0.75456
       O   -15.70079    4.69987    0.45506
      H1   -15.16932    4.79010   -0.34707
       H   -14.36349    9.98109    1.25499
       O   -14.40733   10.87030    0.87858
      H1   -15.27184   11.00272    0.47841
       H   -13.24378    5.01631    2.86820
       O   -13.75134    5.81433    2.48004
      H1   -14.49365    5.34822    2.05836
       H   -17.68332    5.31832   -2.36871
       O   -17.08694    4.82479   -2.94478
      H1   -17.23337    5.10308   -3.87364
       H   -17.89973   12.28455    5.19747
       O   -18.59327   11.65062    5.47152
      H1   -18.69072   11.18094    4.62665
       H   -18.59897   13.69375   -1.56050
       O   -18.86200   12.72823   -1.34568
      H1   -18.71546   12.22670   -2.23274
       H   -19.20480    5.57344   -1.31690
       O   -18.94608    6.43307   -1.63540
      H1   -19.27559    6.55079   -2.53718
       H   -19.56728    3.57759    2.49071
       O   -18.60922    3.40192    2.38809
      H1   -18.13306    3.99493    3.03391
       H   -12.62772    2.84623   -3.65580
       O   -12.35130    3.49853   -3.01470
      H1   -13.11038    4.07800   -2.72119
       H   -11.78832   11.25043    0.25306
       O   -11.34439   11.87432   -0.35355
      H1   -12.13334   12.24751   -0.82506
       H   -15.06048   10.53010   -5.90495
       O   -15.51504   11.15264   -5.32722
      H1   -15.06285   12.03644   -5.46965
       H   -14.30702    7.59728    1.96100
       O   -14.91937    8.37833    1.92602
      H1   -15.50109    8.07745    1.20429
       H   -15.57949    7.72984    4.70156
       O   -16.41648    8.22035    4.69165
      H1   -16.72920    8.16072    3.81654
       H   -17.80429    6.82915   -5.87974
       O   -18.00201    5.96998   -5.45477
      H1   -18.43103    5.46594   -6.14133
       H   -18.86933    3.26067   -0.96714
       O   -19.33714    3.85601   -0.28287
      H1   -18.66430    3.92491    0.44775
       H   -17.85189    2.87131   -2.97924
       O   -18.31906    2.26139   -2.39531
      H1   -18.72956    1.59095   -2.93097
       H   -18.03670    9.30819    0.04382
       O   -17.33557    9.25872   -0.60108
      H1   -17.79386    8.97849   -1.42366
       H    -9.74693    8.45595   -2.18890
       O   -10.33675    9.20482   -2.00814
      H1   -11.16365    8.92211   -1.66033
       H   -17.48921   15.72102   -2.22767
       O   -17.97702   15.34110   -1.48495
      H1   -18.31616   16.10953   -1.05325
       H   -16.67524   10.79436   -1.10714
       O   -16.21947   11.59964   -1.32825
      H1   -16.78458   12.28302   -0.99641
       H   -16.95454    6.02632    0.74644
       O   -17.39272    6.84073    0.97656
      H1   -17.37106    7.39606    0.19845
       H   -13.13016    7.75856   -5.91275
       O   -13.81878    7.13675   -5.68095
      H1   -14.16846    7.47277   -4.85951
       H   -15.48486    8.90933   -8.26904
       O   -15.18753    9.57437   -7.64038
      H1   -15.12962   10.47790   -8.03510
       H   -15.84095   14.59621   -5.79400
       O   -16.76577   14.67583   -5.75283
      H1   -17.14878   14.06645   -5.08886

