117
frame 4 | Written by MDAnalysis XYZWriter (release 2.4.3)
       H    17.40016    3.99726    6.00461
       O    17.31795    3.46117    6.76700
      H1    16.35429    3.36515    6.84458
       H     6.91781    7.56801   12.44158
       O     7.70481    7.12310   12.03452
      H1     7.88164    7.76148   11.38185
       H    16.67277    5.82897   11.38251
       O    15.99477    6.51973   11.06158
      H1    15.10800    6.31901   11.44305
       H     6.60123    3.92599   10.14977
       O     5.69900    3.60790   10.12598
      H1     5.62357    2.82156   10.59454
       H     7.42810    3.66068    4.27942
       O     8.06470    2.91364    4.34147
      H1     7.73352    2.45596    5.12770
       H    13.77499    3.13010    8.85334
       O    14.38608    3.82771    8.50408
      H1    13.94119    4.66255    8.65417
       H    13.56750    1.98895   13.51573
       O    13.41739    1.05779   13.32061
      H1    12.70201    1.03071   12.67301
       H    14.48445    4.47938    5.70827
       O    14.64730    3.69482    5.14084
      H1    13.76312    3.69025    4.67002
       H     5.92640    5.27207    3.88853
       O     5.64459    4.62396    4.55676
      H1     5.73723    4.99335    5.47074
       H    12.50957    4.73958    4.14229
       O    12.41429    3.86476    3.79586
      H1    11.59931    3.48918    4.21030
       H     9.22551    8.19181    4.82046
       O     8.95668    7.24854    4.68145
      H1     9.31083    7.00162    3.86715
       H    14.46319   -1.34002    8.86257
       O    15.07063   -1.55948    9.58830
      H1    15.69905   -2.16214    9.11110
       H    11.52505    7.19581    7.28126
       O    11.58971    8.00397    6.76660
      H1    10.76495    8.10017    6.30779
       H    13.40203    0.37259    8.15735
       O    13.47919   -0.44378    7.65167
      H1    13.64155   -0.11734    6.78700
       H     7.28618    0.34551    6.38017
       O     7.39524    1.27846    6.57581
      H1     8.20844    1.39845    7.08062
       H    15.59254    6.76717    6.51618
       O    15.78570    6.84452    5.53704
      H1    14.90924    6.79794    5.14831
       H     8.35191    6.78573    6.72655
       O     8.43732    7.08777    7.67120
      H1     8.01480    7.93962    7.71121
       H     8.58219    0.07879    1.91050
       O     8.02873    0.27117    2.70249
      H1     8.46817    0.99501    3.10262
       H     6.55387    6.21424    7.55273
       O     5.77374    5.61277    7.46166
      H1     5.06358    6.24004    7.63453
       H    12.98003    7.04292    4.29342
       O    13.13193    6.42729    5.06911
      H1    12.54253    6.85569    5.72293
       H     6.31181    2.09182   13.98078
       O     7.19556    1.99558   13.55144
      H1     6.88453    2.05970   12.63900
       H     9.72858    0.24526    8.36683
       O     9.25715    0.96118    8.88479
      H1     8.67963    0.47530    9.47547
       H    11.63265    7.66283   11.39666
       O    10.96639    7.00382   11.10937
      H1    10.80247    6.51847   11.92111
       H     5.78589    1.55222    7.43887
       O     4.87926    1.94825    7.46466
      H1     4.91582    2.47462    8.25603
       H    15.35795    3.26514   10.75112
       O    15.58286    2.80942   11.56626
      H1    15.62214    1.92193   11.28110
       H    11.50200   -0.63656    7.31269
       O    10.56771   -0.80633    7.52978
      H1    10.35826   -1.74127    7.48832
       H    11.99964   -0.26112   11.36104
       O    11.72560    0.64333   11.35510
      H1    10.94246    0.63048   11.88447
       H    11.67440    6.40803    9.50473
       O    12.07148    6.04734    8.70090
      H1    11.59862    5.20143    8.63147
       H     6.33011    0.42485   10.86683
       O     5.62273    1.04849   10.94536
      H1     5.06782    0.82175   11.72409
       H    13.08624    6.75101   12.99029
       O    13.56026    6.09807   12.50651
      H1    13.56773    5.34174   13.09198
       H    10.79384    3.26486    7.29844
       O    10.81350    3.58818    8.18541
      H1    10.13741    3.04363    8.63952
       H    15.63202    1.19314    6.13847
       O    14.96688    1.07471    5.41338
      H1    14.82152    2.00525    5.33142
       H    11.05878   -0.20278    4.77949
       O    11.54382    0.68139    4.67230
      H1    11.31446    0.91193    3.75048
       H    10.58248    3.88395   12.25607
       O    10.83643    4.47151   13.01783
      H1    11.77156    4.62425   12.88955
       H    12.18900    2.61233    8.75654
       O    12.74297    1.90767    9.04349
      H1    12.40375    1.39175    9.79715
       H    13.89384    6.69990    8.90347
       O    14.80160    6.95021    8.63271
      H1    15.32612    6.42473    9.26458
       H     9.04982    3.63446   10.60132
       O     9.46736    2.85824   11.11885
      H1     9.73601    2.11901   10.52951
       H    10.83421    2.15668    5.31419
       O    10.53762    3.08485    5.51952
      H1     9.68967    3.14153    5.07128
       H     8.67428    5.40733    9.26402
       O     8.31542    5.00492   10.05134
      H1     8.37982    5.59035   10.78945

