117
frame 1 | Written by MDAnalysis XYZWriter (release 2.4.3)
       H   -14.91242   -6.35110   10.31570
       O   -15.85989   -6.59702   10.13036
      H1   -16.19687   -5.74420    9.81287
       H   -14.25823  -12.35939   10.35692
       O   -13.77482  -12.18705    9.54969
      H1   -14.01186  -11.27909    9.32693
       H   -17.41496  -10.51785   11.74062
       O   -17.31050  -11.30208   12.33638
      H1   -18.24136  -11.65391   12.35073
       H   -16.76404   -5.93955   13.11923
       O   -16.14173   -5.20353   13.19357
      H1   -16.15909   -4.74328   14.04035
       H   -19.87923   -6.16005   11.63176
       O   -19.25078   -5.62123   12.05632
      H1   -19.64614   -4.74808   11.94555
       H   -14.54924   -8.07821    7.58437
       O   -15.43917   -8.22731    7.98138
      H1   -15.62183   -7.54921    8.62500
       H   -16.39049   -3.35172   12.40048
       O   -16.61816   -2.51745   11.98876
      H1   -17.53839   -2.42597   11.89046
       H   -17.06177   -7.91267   10.67760
       O   -17.43322   -8.75195   10.97738
      H1   -18.36312   -8.79790   10.69986
       H   -12.47711   -9.93713   10.62536
       O   -11.78493  -10.58564   10.72414
      H1   -12.17041  -11.34244   10.21062
       H   -17.16365   -8.39716   12.66922
       O   -16.89057   -8.04919   13.52782
      H1   -15.97910   -8.37324   13.69581
       H   -12.20666   -6.45569   11.16974
       O   -11.49131   -6.97404   11.59790
      H1   -11.02779   -7.43006   10.85509
       H   -17.52250   -9.38614    6.00061
       O   -17.25010   -9.87408    6.76623
      H1   -16.67246   -9.25723    7.24471
       H   -13.49485   -4.31551    9.83380
       O   -13.29818   -5.23692    9.87462
      H1   -13.42013   -5.50149    8.98676
       H   -18.15895   -5.83510   14.91830
       O   -19.12200   -5.83523   14.69428
      H1   -19.15001   -5.75713   13.70404
       H   -14.22150  -12.60244   12.81061
       O   -14.49560  -11.81135   12.37444
      H1   -15.46448  -11.80861   12.32631
       H   -12.06740   -7.83583   13.33313
       O   -12.54149   -7.63440   14.11327
      H1   -13.03643   -6.79053   13.92981
       H   -13.68872   -5.41810    5.02833
       O   -14.21735   -4.64444    5.05622
      H1   -14.01764   -4.12903    5.80468
       H   -14.66458   -8.85486   11.08149
       O   -14.10714   -8.94392   10.33892
      H1   -14.66420   -8.76052    9.61559
       H   -17.13302   -1.51828    7.20766
       O   -16.70217   -1.87307    8.02079
      H1   -15.81173   -2.00589    7.69862
       H    -9.19247   -6.21499    6.79772
       O   -10.08397   -6.56224    6.65215
      H1   -10.02426   -6.75346    5.73821
       H   -13.64633   -2.77041   11.54876
       O   -14.08695   -2.91271   10.67160
      H1   -15.03751   -2.70203   10.90312
       H   -11.97174   -8.20906    6.97029
       O   -12.81483   -8.21689    6.57138
      H1   -12.78236   -7.61193    5.80077
       H   -13.76608   -6.16193   16.89460
       O   -14.26738   -5.47175   16.49625
      H1   -15.01091   -5.98340   16.10236
       H   -16.87943   -7.03455   15.01198
       O   -16.66528   -6.39465   15.71514
      H1   -16.54177   -6.86152   16.54910
       H   -12.79723   -3.19355   13.54791
       O   -12.80438   -2.33477   13.13694
      H1   -11.94021   -2.23607   12.65927
       H   -17.55768   -4.34703    9.75924
       O   -16.88825   -4.25241    9.04812
      H1   -16.97736   -3.30782    8.66825
       H    -9.61445   -5.98888   13.87944
       O    -9.18627   -6.13932   13.03537
      H1    -9.89654   -6.56297   12.52515
       H   -19.59126   -2.25724   11.17752
       O   -19.53349   -2.91861   11.85268
      H1   -19.62421   -2.42686   12.68325
       H   -10.17794  -10.83644   13.33465
       O   -11.08780  -10.60163   13.40324
      H1   -11.36198  -10.47088   12.47172
       H   -15.61057  -10.86248    6.70559
       O   -14.78465  -11.17104    6.37171
      H1   -14.35941  -10.37342    5.98582
       H   -17.75419  -10.74539   15.54604
       O   -17.80150   -9.78191   15.74381
      H1   -17.48543   -9.31335   14.92316
       H    -9.64073   -8.34954    9.15952
       O   -10.54424   -7.98262    9.12072
      H1   -10.41347   -7.41813    8.32246
       H   -15.92374   -5.11325    5.85346
       O   -16.79817   -4.89278    6.17825
      H1   -16.75119   -4.89594    7.16766
       H   -11.26320   -5.28711    7.01273
       O   -12.13859   -4.85679    7.23218
      H1   -11.89874   -4.22066    7.91492
       H   -18.35887   -5.60930    6.57334
       O   -19.27276   -5.89444    6.68631
      H1   -19.62687   -6.11993    5.82952
       H   -14.24573   -1.54989    5.92391
       O   -14.23345   -2.00632    6.81084
      H1   -13.38267   -1.90768    7.24840
       H   -13.95414   -4.98097   14.77067
       O   -13.69546   -5.14990   13.84676
      H1   -14.55947   -5.26191   13.40485
       H   -10.90676   -2.71021    9.65985
       O   -10.80779   -2.89140    8.72719
      H1    -9.85321   -2.94127    8.56110
       H   -14.46694  -10.26187   13.02489
       O   -14.51196   -9.43019   13.56316
      H1   -13.74430   -8.79206   13.55329

