117
frame 10 | Written by MDAnalysis XYZWriter (release 2.4.3)
       H   -18.23528   12.32867   -8.96235
       O   -18.35041   11.35197   -8.77259
      H1   -19.24938   11.11338   -9.03627
       H   -12.97888   17.57282   -0.59253
       O   -13.60324   18.26877   -0.40059
      H1   -13.27477   18.75090    0.39066
       H   -12.05296   15.50346    0.12838
       O   -12.12097   16.07104   -0.66052
      H1   -12.79959   15.72065   -1.23150
       H   -18.11925   13.23430   -5.83889
       O   -18.50277   14.09459   -5.66516
      H1   -19.25391   14.04601   -6.23627
       H   -14.42976   12.20572  -10.03691
       O   -14.72973   12.42983   -9.12129
      H1   -15.33051   13.16944   -9.18369
       H   -15.85336   16.73074  -12.04080
       O   -16.16957   17.55971  -12.51294
      H1   -16.62923   18.19334  -11.93802
       H   -18.28997   14.62507    4.00756
       O   -18.58982   15.30904    3.38918
      H1   -19.55309   15.51541    3.48247
       H   -13.07138   15.61819   -3.62666
       O   -13.81280   15.20278   -3.16779
      H1   -14.57075   15.82946   -3.11375
       H   -13.92546   17.39116    2.74456
       O   -14.49671   17.99922    3.18670
      H1   -15.27296   17.96960    2.67117
       H   -19.08945   18.30355    0.92995
       O   -18.59806   19.14170    0.93391
      H1   -19.09955   19.90341    0.59976
       H   -14.21295   14.14175   -4.56182
       O   -14.37416   13.40642   -5.16625
      H1   -13.64313   13.32955   -5.84506
       H   -11.21844   16.03755   -4.83330
       O   -11.99814   16.52206   -5.08416
      H1   -11.65678   17.45987   -5.04714
       H   -16.09182   17.59236   -2.49948
       O   -16.26047   16.71048   -2.89967
      H1   -16.51071   16.97705   -3.79470
       H   -17.96393   18.35278    2.72871
       O   -17.53407   17.87359    3.47196
      H1   -17.80894   16.95914    3.31222
       H   -18.32360   14.44881    0.50421
       O   -18.24953   13.71702    1.18333
      H1   -18.43533   14.18540    2.02440
       H   -16.35340   19.55720   -1.56321
       O   -15.64202   19.36436   -2.17445
      H1   -14.87232   19.20784   -1.66840
       H   -16.52187   13.09775    1.79766
       O   -15.73975   13.11014    2.40007
      H1   -15.25203   12.34709    2.09350
       H   -14.08230   13.36033   -2.33669
       O   -13.85682   12.78008   -1.56877
      H1   -14.11143   11.90966   -1.88267
       H    -9.54951   17.33883   -7.99250
       O   -10.24155   17.48449   -8.63920
      H1   -11.08141   17.09785   -8.25327
       H   -17.02610   13.27265  -12.47396
       O   -17.76454   13.22431  -11.84064
      H1   -18.13813   14.04440  -12.01110
       H   -17.06047    9.50697   -3.59594
       O   -16.77011    8.69743   -4.04964
      H1   -17.28639    8.56302   -4.88338
       H   -17.22388   13.56587  -10.23009
       O   -17.05486   13.80064   -9.33546
      H1   -17.11518   14.73237   -9.16134
       H   -14.83406   15.71759  -10.39428
       O   -14.95339   15.36279  -11.34434
      H1   -14.12351   14.98656  -11.70133
       H   -11.25998   11.18209   -1.93041
       O   -11.62148   11.68593   -2.64868
      H1   -12.24253   12.18725   -2.11409
       H   -14.82405   15.46388    0.61202
       O   -14.38303   15.29050    1.49634
      H1   -14.83403   14.47525    1.77380
       H   -17.65266   13.58007   -2.15655
       O   -17.96323   12.74934   -2.69125
      H1   -17.89752   13.03124   -3.59006
       H   -19.17619   12.39481   -1.48741
       O   -19.79805   12.30964   -0.71210
      H1   -19.25841   12.60739    0.01189
       H   -13.29221   16.24023   -8.05611
       O   -12.48535   15.97924   -7.63050
      H1   -12.48799   16.32790   -6.72502
       H   -18.28086   17.69313   -4.68811
       O   -17.40285   17.83067   -5.03472
      H1   -17.37058   17.11162   -5.75390
       H   -16.65564   19.61994   -9.48928
       O   -16.48136   19.09483   -8.67216
      H1   -15.92879   19.69178   -8.10811
       H   -13.23630   12.94814   -7.99503
       O   -12.60823   13.18815   -7.29491
      H1   -12.43069   14.15662   -7.38844
       H   -17.77286   17.80007   -8.43202
       O   -18.11793   16.87708   -8.55267
      H1   -18.93788   16.86233   -7.98615
       H   -15.60201   17.32319   -8.88938
       O   -15.04123   16.48792   -8.82161
      H1   -15.38277   15.92722   -8.15376
       H   -17.67531   11.39253   -6.90428
       O   -17.46638   11.56071   -5.97476
      H1   -16.64991   11.11769   -5.81008
       H   -17.92523   16.66198  -12.27438
       O   -18.59648   15.95360  -12.31936
      H1   -18.84970   15.80698  -13.24993
       H   -17.52390   16.03778   -1.65873
       O   -18.21598   15.55330   -1.16492
      H1   -18.78617   16.22199   -0.80613
       H   -17.35335    9.97912   -1.15687
       O   -16.72413   10.41893   -1.64583
      H1   -17.07100   11.24807   -1.90891
       H   -15.36877    9.18953   -8.99491
       O   -15.47594    9.81457   -8.28288
      H1   -15.38934   10.71399   -8.54272
       H   -15.44428   14.56854   -6.02485
       O   -16.15885   14.97245   -6.54162
      H1   -17.00850   14.74766   -6.11242

