117
frame 5 | Written by MDAnalysis XYZWriter (release 2.4.3)
       H     1.21456   17.38110  -10.16670
       O     1.77974   16.71976  -10.54155
      H1     2.34505   16.47968   -9.73481
       H     6.14507   19.73750   -5.29073
       O     6.68773   19.22197   -4.69427
      H1     6.30905   18.33289   -4.76194
       H     8.93151   14.18784  -12.09080
       O     8.28647   14.68945  -12.63234
      H1     7.95087   14.01648  -13.18332
       H     2.61035   11.61133   -6.41459
       O     3.00253   11.77570   -7.29645
      H1     3.49633   12.58973   -7.19176
       H     3.62544   18.41648   -4.60195
       O     3.18833   18.68738   -3.77534
      H1     2.52729   19.35949   -3.99138
       H     6.52919   16.24340  -12.99391
       O     6.34287   16.85427  -13.70929
      H1     6.98919   17.54845  -13.47760
       H     7.91586   13.24465   -8.43115
       O     8.58496   13.45756   -7.78687
      H1     8.56566   12.66922   -7.16285
       H     8.66829   10.50265   -6.38943
       O     8.38719   11.34531   -5.98532
      H1     7.45442   11.21177   -5.84214
       H     8.38510   19.78660  -14.68786
       O     8.86236   19.20203  -14.08030
      H1     9.82259   19.33981  -14.02439
       H     0.45981   17.13585   -6.08121
       O     0.74049   17.19916   -5.15759
      H1     1.31118   17.98646   -5.03721
       H    12.73982   15.45783   -9.20685
       O    13.03316   15.91904  -10.00321
      H1    12.73767   15.23423  -10.58130
       H    11.25105   12.49792  -11.46305
       O    10.58467   12.94142  -12.01671
      H1    10.38432   12.20062  -12.63832
       H     9.00543   16.93425  -14.11502
       O     9.63151   16.23766  -14.47029
      H1     9.33008   15.45766  -14.05548
       H    10.80674   18.69208   -6.32529
       O    10.89250   18.31444   -7.20669
      H1    11.35373   17.48390   -6.93855
       H     8.65531   15.28813   -9.02134
       O     8.21990   16.00605   -9.50263
      H1     8.92744   16.65539   -9.68538
       H     7.40184   17.23651   -2.18438
       O     6.73181   16.60550   -2.41610
      H1     6.79094   15.91297   -1.64256
       H     5.20172   16.17671  -10.06688
       O     5.86494   15.93022  -10.80166
      H1     6.70056   15.93676  -10.27445
       H     3.23841   16.99925   -3.39065
       O     3.29072   16.03726   -3.20091
      H1     4.14846   15.93577   -2.73530
       H     4.51141   17.47787  -13.15542
       O     3.76457   17.88700  -12.70711
      H1     3.22798   17.17906  -12.27053
       H     3.94425   16.73409   -8.16191
       O     3.96500   15.98503   -8.75492
      H1     4.41154   15.22968   -8.27113
       H     6.02383   17.79626  -10.93595
       O     5.59727   18.64358  -10.84252
      H1     4.76033   18.55129  -11.35113
       H     6.95182   18.76596   -7.54157
       O     7.31114   17.89927   -7.38444
      H1     7.45356   17.46152   -8.24282
       H     5.85400   17.95870   -1.91746
       O     5.21426   18.71437   -1.75941
      H1     4.75510   18.92338   -2.58640
       H    12.72027   12.08004   -7.45278
       O    11.95621   12.01784   -8.05115
      H1    11.58340   12.90062   -8.01792
       H    10.15124   14.32502   -7.59841
       O    11.02916   14.67517   -7.64209
      H1    11.36537   15.09373   -6.80417
       H     5.36104   14.11622  -11.24897
       O     4.85253   13.29622  -11.54945
      H1     3.94793   13.45436  -11.19085
       H    12.87070   16.43002  -14.19324
       O    12.19716   16.50438  -13.46513
      H1    11.33432   16.50612  -13.86196
       H     5.85812   14.10258   -4.12630
       O     6.68247   14.40429   -4.58095
      H1     6.83640   15.31189   -4.23637
       H     9.66287   15.14421   -3.53086
       O     9.88717   14.72070   -2.72058
      H1     9.16236   14.16268   -2.39407
       H     4.02804   17.53695   -6.30964
       O     4.59449   17.36630   -5.59716
      H1     4.23613   16.54362   -5.21207
       H     1.94081   18.54468   -7.67133
       O     2.90499   18.38434   -7.43963
      H1     3.24962   19.32336   -7.47952
       H     9.18721   15.91166   -5.67181
       O     9.81330   16.14988   -4.98762
      H1     9.68900   17.09591   -4.84753
       H     3.33732   14.03532   -3.53847
       O     3.74739   13.41070   -4.20683
      H1     3.09576   13.38922   -4.91363
       H    13.74310   19.89908   -5.09727
       O    13.99566   19.00773   -5.41848
      H1    13.24491   18.53747   -5.76714
       H     9.79181   18.34836   -8.62481
       O     9.33579   18.40853   -9.49390
      H1     9.80228   19.02965  -10.06420
       H     5.76888   14.15752   -6.67370
       O     5.04816   13.82662   -7.26493
      H1     5.61519   13.37449   -7.96580
       H    10.91227   19.20491   -3.93485
       O    10.21834   18.91465   -4.56705
      H1     9.73161   19.66607   -4.78315
       H     5.71382   12.90951  -10.07702
       O     6.34075   12.64416   -9.33596
      H1     5.99934   11.77855   -9.03370
       H    13.25932   15.82111   -5.63690
       O    12.56641   16.44514   -5.81022
      H1    12.21214   16.56349   -4.91485

