117
frame 9 | Written by MDAnalysis XYZWriter (release 2.4.3)
       H     8.66170  -18.22946   -5.34955
       O     8.00985  -18.82771   -5.70037
      H1     7.14380  -18.33361   -5.71297
       H     1.89485  -17.35571  -10.03265
       O     1.55111  -17.84303  -10.79261
      H1     1.71882  -17.23871  -11.51610
       H     9.28766  -12.94534   -1.44948
       O     8.49870  -12.83369   -2.01140
      H1     8.85452  -12.46556   -2.81294
       H    13.84130  -17.71652   -3.71857
       O    12.89286  -17.84254   -3.91236
      H1    12.86951  -17.56681   -4.83007
       H    14.26717  -18.51119   -6.74420
       O    13.42323  -19.04264   -6.90061
      H1    12.75258  -18.55018   -6.47367
       H     8.55006  -16.75285   -0.81930
       O     9.22130  -16.10199   -0.64667
      H1     8.80148  -15.57903    0.06054
       H     8.45460  -14.12572   -3.36302
       O     8.26542  -14.82305   -4.04534
      H1     8.58155  -14.43579   -4.89198
       H    11.23205  -18.99898   -0.57353
       O    11.10654  -19.93542   -0.38911
      H1    10.62649  -20.33453   -1.09598
       H     8.02504  -17.79749   -2.49972
       O     7.39218  -17.81734   -1.77131
      H1     6.56954  -17.58124   -2.30934
       H     3.72219  -13.60520   -4.11506
       O     3.49578  -13.66156   -5.00154
      H1     2.78749  -14.32972   -5.09078
       H     8.59564  -17.64328   -9.08106
       O     8.06141  -16.95505   -9.55813
      H1     7.24366  -17.45722   -9.60542
       H     5.58362  -16.52411   -6.70118
       O     5.08520  -16.88342   -5.93346
      H1     5.21549  -16.29846   -5.14605
       H     4.89248  -13.32468   -8.89292
       O     5.50511  -13.17195   -8.16627
      H1     5.02126  -12.76559   -7.47247
       H     3.71204  -16.56454    0.09723
       O     3.78345  -15.62904    0.37634
      H1     4.08195  -15.27172   -0.47449
       H    11.56295  -13.44677  -10.43021
       O    10.74545  -13.09395  -10.71809
      H1    10.13678  -13.84648  -10.60516
       H     6.38180  -14.90876   -7.89149
       O     6.87527  -15.62733   -7.48719
      H1     7.36204  -16.01607   -8.21233
       H    12.33360  -18.88073   -8.87440
       O    12.25111  -18.08393   -9.41285
      H1    12.54234  -17.33257   -8.88078
       H     8.87688  -18.91628   -7.29297
       O     9.46063  -18.69782   -8.05326
      H1     9.81360  -19.55328   -8.29985
       H     6.54870  -15.41681   -3.66293
       O     5.63387  -15.78898   -3.33022
      H1     5.16549  -15.03426   -2.91502
       H    10.60016  -17.47788   -7.27213
       O    11.11915  -16.95123   -6.65710
      H1    10.52626  -16.17627   -6.38908
       H    13.64723  -18.07836  -10.87276
       O    14.19360  -17.59618  -11.49110
      H1    13.60825  -16.97988  -11.97467
       H     8.81868  -12.20464   -8.37916
       O     9.76794  -12.33469   -8.37367
      H1    10.04799  -12.50974   -9.26006
       H     5.65123  -19.51042  -11.92043
       O     4.79720  -19.02858  -11.88162
      H1     4.42819  -19.22471  -12.75171
       H    13.61490  -15.33708   -7.54184
       O    12.90570  -15.61958   -8.09949
      H1    12.25107  -15.91050   -7.46908
       H     2.56566  -18.45951    0.51967
       O     3.51560  -18.26002    0.42441
      H1     3.81655  -18.61147   -0.45172
       H     8.62986  -16.07229  -12.20979
       O     8.78878  -15.29300  -11.58179
      H1     8.33661  -15.59169  -10.75540
       H     4.88787  -18.14522   -9.57609
       O     5.11559  -18.04615   -8.65325
      H1     4.25117  -18.22109   -8.24813
       H     5.33056  -16.39167  -11.94967
       O     5.48060  -16.22526  -11.03781
      H1     4.54486  -16.10179  -10.80569
       H    10.19575  -17.43524   -3.84863
       O     9.23098  -17.29417   -3.87489
      H1     9.15648  -16.34497   -3.73353
       H    13.45622  -12.95752   -4.42938
       O    13.48035  -13.84662   -4.06011
      H1    14.33278  -13.87446   -3.57722
       H    12.55175  -17.56212   -2.04895
       O    12.27297  -16.99112   -1.28385
      H1    11.37403  -16.62150   -1.32007
       H     3.26926  -13.98780   -1.55146
       O     4.05385  -13.79696   -2.04972
      H1     4.63627  -13.25280   -1.45968
       H     0.11238  -17.59363   -2.38759
       O     0.92825  -17.20125   -2.44662
      H1     1.39985  -17.73737   -3.03521
       H    10.62588  -18.73391  -10.94509
       O    10.06833  -19.40152  -11.38631
      H1    10.52535  -19.35110  -12.24492
       H     0.45243  -17.50819   -6.03063
       O    -0.49126  -17.84748   -6.13086
      H1    -0.57651  -17.77041   -7.07604
       H     1.83984  -14.96052   -7.41587
       O     1.51143  -15.23812   -6.54853
      H1     0.66314  -14.70332   -6.46274
       H     8.35765  -14.82740   -7.12371
       O     9.30911  -14.75220   -6.76224
      H1     9.78861  -13.94047   -7.04419
       H     3.00975  -19.08938   -6.21628
       O     3.08179  -18.35208   -6.85078
      H1     3.74881  -17.78834   -6.39850
       H     9.34923  -18.10051  -12.38814
       O     9.00017  -17.58875  -13.15661
      H1     9.78095  -17.40181  -13.69814

