117
frame 11 | Written by MDAnalysis XYZWriter (release 2.4.3)
       H    13.68775  -13.78416    3.59253
       O    13.05281  -13.64101    2.86470
      H1    12.43316  -14.40464    2.69657
       H    14.03599  -15.57925   12.51051
       O    13.58895  -15.92587   11.74878
      H1    12.73173  -16.16201   12.06844
       H    10.55307  -14.58584    1.24266
       O    11.04822  -15.18063    1.82382
      H1    11.63796  -15.74162    1.32010
       H     8.92012  -14.43312    6.49855
       O     9.29639  -15.16733    5.96889
      H1     9.07065  -14.83528    5.08269
       H    18.34803  -13.25686    4.17360
       O    18.61237  -14.08794    3.78547
      H1    19.52211  -14.24640    4.03370
       H    14.97690  -13.25172    5.42426
       O    15.12642  -13.29591    4.45762
      H1    15.72989  -12.52837    4.23220
       H    11.86141  -18.16149   13.30923
       O    11.89763  -18.66787   14.13958
      H1    12.49210  -19.41994   13.92790
       H    18.17045  -18.13708    1.72774
       O    18.41064  -18.67097    2.50198
      H1    17.70972  -19.29838    2.70232
       H    14.59525  -12.16211    9.23668
       O    14.00557  -12.08712    9.98047
      H1    13.49582  -12.88123   10.03849
       H     7.36254  -15.59646    1.84227
       O     8.22202  -16.00425    1.76490
      H1     8.88473  -15.42072    2.15604
       H    11.78334  -12.55565    3.35552
       O    11.05625  -12.01557    3.68249
      H1    11.37666  -11.23482    4.18238
       H    14.69750  -18.79346   -0.68602
       O    14.68676  -17.81002   -0.78058
      H1    15.13363  -17.47623    0.05913
       H     8.85767  -16.12061   11.07287
       O     9.16033  -15.35106   10.56784
      H1     9.12932  -14.55621   11.19297
       H    10.85271  -17.72453   11.58541
       O    11.00349  -16.81367   11.92058
      H1    10.47700  -16.24554   11.37896
       H    16.99457  -19.03829   12.88573
       O    16.82390  -19.82621   12.35401
      H1    15.84358  -19.91493   12.47896
       H    14.22043  -13.93038    7.42318
       O    14.75268  -13.14358    7.15040
      H1    15.66026  -13.47027    7.19692
       H    15.94116  -18.52851    9.94757
       O    16.37024  -19.40581    9.85172
      H1    16.51380  -19.62999   10.73622
       H    12.36516  -16.01518    7.51381
       O    11.61353  -15.51449    7.74098
      H1    11.01349  -15.59191    6.97318
       H    16.87754  -16.06829    4.49810
       O    15.95457  -15.81827    4.17826
      H1    15.99271  -14.85831    4.07055
       H    17.50647  -18.84469    8.54874
       O    18.35591  -18.61108    8.12992
      H1    18.93460  -18.37616    8.87065
       H    13.51775  -17.51163   11.18002
       O    13.73957  -18.38842   10.82283
      H1    13.14541  -18.38798   10.08193
       H    11.93617  -14.30330    9.21940
       O    12.25630  -14.00559   10.08467
      H1    12.72267  -14.73955   10.59720
       H    19.35810  -17.95078    5.50830
       O    18.51716  -17.63925    5.14128
      H1    18.55750  -18.00640    4.25957
       H    13.87361  -18.31458    5.42525
       O    14.32478  -18.44438    6.25170
      H1    13.65394  -18.61084    6.96587
       H     6.63219  -17.62988    4.50678
       O     6.03793  -16.90765    4.33507
      H1     6.00424  -16.43791    5.13136
       H    16.73069  -16.71761    1.09091
       O    15.93003  -16.32414    1.35844
      H1    15.89636  -16.35987    2.34741
       H    17.61974  -17.04326    8.56819
       O    16.97489  -16.31186    8.78519
      H1    17.13269  -15.97079    9.68940
       H    15.30971  -16.10190    8.28348
       O    14.56924  -16.04556    7.66056
      H1    14.93282  -16.71704    7.07210
       H    10.73508  -19.64818    5.42260
       O    10.14024  -18.99644    5.83704
      H1    10.57534  -18.74541    6.67519
       H    13.43687  -17.42123    2.77211
       O    13.75842  -17.52967    3.64635
      H1    14.38958  -16.85131    3.76935
       H    13.32688  -17.25873    0.33467
       O    12.75887  -17.09469    1.09072
      H1    11.90796  -17.64494    1.02507
       H     6.98781  -15.76423    8.16947
       O     7.11547  -14.95554    8.76671
      H1     7.78737  -15.23193    9.41522
       H    17.00637  -16.41673   11.86361
       O    17.32546  -15.62934   11.30844
      H1    18.25015  -15.84071   11.14941
       H     8.60674  -18.32524   10.36931
       O     7.75864  -17.86053   10.56300
      H1     7.62473  -17.84302   11.53900
       H     9.88593  -18.66126    0.48253
       O    10.18777  -18.46599    1.36643
      H1     9.43180  -18.18877    1.80826
       H     9.10817  -17.27279    8.20953
       O     9.91481  -17.81991    8.35885
      H1    10.67143  -17.19953    8.46314
       H     7.57472  -19.58284    4.23861
       O     7.51201  -19.43244    5.22384
      H1     8.46102  -19.23582    5.54320
       H     8.13278  -16.29901    6.36719
       O     7.45965  -16.83801    6.79707
      H1     7.22884  -17.57385    6.19812
       H     9.98900  -12.53201    7.17168
       O    10.75445  -11.93538    6.99732
      H1    10.67934  -11.89687    6.05049

