117
frame 2 | Written by MDAnalysis XYZWriter (release 2.4.3)
       H   -16.33669    7.76162    9.98920
       O   -16.67964    7.11527   10.64686
      H1   -17.61113    7.04605   10.41817
       H   -16.85195   13.87995   11.43755
       O   -17.28532   13.08115   11.84917
      H1   -18.10759   12.99042   11.30342
       H   -16.74619    5.40156    7.63299
       O   -16.02034    4.70649    7.63241
      H1   -15.49197    4.96343    8.40494
       H   -18.54499   12.61954    5.14461
       O   -18.52933   12.24167    6.02631
      H1   -18.87041   12.94763    6.59427
       H   -11.68750   10.64192    9.37890
       O   -12.51005   10.86257    8.93765
      H1   -12.66282   11.69624    9.37495
       H   -12.62089    8.06581   11.80645
       O   -12.60396    8.34253   10.87023
      H1   -13.49846    8.53804   10.61985
       H   -14.73557   11.83951   15.81803
       O   -14.11613   11.89749   15.09259
      H1   -14.23202   12.74660   14.72632
       H   -15.45394    5.52649   10.29642
       O   -14.82398    4.91814    9.95308
      H1   -14.90317    4.26157   10.63089
       H   -14.19732    8.90561    8.89292
       O   -15.05477    8.96577    9.31895
      H1   -15.25421    9.93829    9.40124
       H   -13.45128   15.12584   14.20682
       O   -14.02060   14.46035   13.76735
      H1   -14.88964   14.82896   14.09459
       H   -16.40421    9.23503    8.02482
       O   -16.85534    9.27948    7.12063
      H1   -16.76873   10.23892    6.94197
       H   -17.76126   18.61984    8.14498
       O   -17.21102   17.91735    7.63509
      H1   -17.37800   17.08495    8.13753
       H   -13.25111   16.43398    8.14037
       O   -12.94370   17.24128    8.50812
      H1   -12.32891   16.98762    9.18990
       H   -17.88622   16.47492   10.25191
       O   -18.43771   16.96858   10.85588
      H1   -19.25408   17.11669   10.37702
       H   -11.44264    7.22713    6.82831
       O   -10.93473    7.95436    6.40138
      H1   -11.61322    8.46200    5.88685
       H   -17.95056    7.15472   14.22670
       O   -17.53925    8.03880   14.31490
      H1   -16.76939    8.05024   13.71696
       H   -13.82063   11.21908   13.36902
       O   -13.69592   10.93879   12.43737
      H1   -14.16535   10.09152   12.56284
       H   -11.75633   13.85553   11.42447
       O   -12.49084   14.53283   11.47296
      H1   -12.85678   14.28936   12.36364
       H   -14.14928    9.90055   15.70374
       O   -13.96434    8.98699   15.54727
      H1   -14.04483    8.64757   16.46920
       H   -13.99259   14.45513    7.04758
       O   -14.33116   15.35816    7.13440
      H1   -15.14215   15.15452    7.63142
       H   -13.50946   13.76270   10.05506
       O   -14.06099   13.35804    9.34905
      H1   -14.75749   12.75641    9.74209
       H   -17.66374   12.75075   13.79447
       O   -17.77906   13.06280   14.70428
      H1   -18.03447   12.31656   15.21503
       H   -11.74362   16.10302   11.22741
       O   -11.63674   17.01085   10.96324
      H1   -11.90146   17.59487   11.68259
       H   -10.10142   12.11271   10.57898
       O   -10.83050   12.68494   10.38056
      H1   -10.68265   13.06831    9.47650
       H   -15.80973    7.61079   11.92269
       O   -15.46840    8.03719   12.73643
      H1   -14.90238    7.34210   13.14686
       H   -16.62187   14.48285   15.20495
       O   -16.19388   15.28190   15.50708
      H1   -16.88717   15.75616   16.04142
       H   -17.47260    7.44712    6.88782
       O   -17.81820    6.66879    7.27959
      H1   -18.35511    6.30255    6.55585
       H   -14.10240   16.50706   10.91048
       O   -15.04531   16.59123   10.67988
      H1   -15.25922   17.56311   10.60962
       H   -18.25201   15.57960   13.78047
       O   -19.10402   15.86514   13.37278
      H1   -18.76241   16.27819   12.58462
       H   -12.84318    8.29394   14.26194
       O   -12.19383    7.97494   13.62420
      H1   -11.50087    8.68988   13.61263
       H   -15.31179   12.27344    7.06551
       O   -16.20832   12.42669    7.46789
      H1   -16.82300   12.45526    6.68081
       H   -13.18919    9.81256    4.41889
       O   -12.36422    9.29290    4.46052
      H1   -11.80341    9.63001    3.76414
       H   -17.16130   14.57142    8.51566
       O   -16.78237   15.43539    8.79299
      H1   -16.00733   15.25526    9.34405
       H   -12.56603   12.25014    6.08932
       O   -13.33230   11.90113    6.51416
      H1   -12.90386   11.38692    7.17976
       H   -10.52713   11.43013    7.01450
       O    -9.80348   10.94197    6.58469
      H1   -10.22478   10.12161    6.29181
       H    -9.79240    9.44863   10.42521
       O   -10.37146   10.02469   10.96303
      H1   -11.25585    9.53108   11.07367
       H   -13.20508    6.36164    7.41342
       O   -12.74006    6.71648    8.15577
      H1   -12.91343    6.09432    8.90422
       H   -12.02874   13.65978    7.65029
       O   -11.05930   13.47557    7.73445
      H1   -10.55794   14.29049    7.52375
       H   -16.29599   11.71210   10.66165
       O   -15.93385   11.39798    9.86294
      H1   -16.37200   11.77158    9.06930

