117
frame 9 | Written by MDAnalysis XYZWriter (release 2.4.3)
       H    17.48812    4.71738    6.11123
       O    17.18439    3.88565    5.68701
      H1    16.55573    3.57038    6.28910
       H    17.65393    6.73543    6.40303
       O    18.39208    6.13205    6.66186
      H1    19.07418    6.46007    6.06038
       H    15.21627    2.96338    2.59367
       O    15.42013    3.65385    1.93298
      H1    16.32752    3.45217    1.62729
       H    18.69097    5.96334    2.69578
       O    19.45636    6.58272    2.52467
      H1    19.77380    6.43460    1.63375
       H    15.29319    3.70880    8.86942
       O    15.42603    4.17480    8.00276
      H1    15.08881    5.09415    8.14876
       H    14.26626    8.45385    2.31073
       O    14.13892    7.47988    2.22765
      H1    14.39655    7.31878    1.35859
       H    11.12258   -3.39143    6.02256
       O    11.41026   -3.50056    6.98485
      H1    12.16498   -2.79847    7.07268
       H    13.97938    3.93582    5.40686
       O    14.07301    3.10772    5.91301
      H1    14.56670    3.50137    6.64329
       H    11.64994    2.41565    6.49825
       O    10.87330    2.84649    6.88668
      H1    10.13431    2.45511    6.47576
       H     9.30627   -2.43849    3.73895
       O     9.38520   -1.50459    3.47541
      H1     8.48154   -1.25812    3.26177
       H    17.27060    2.49378   -0.41120
       O    17.44150    3.14125    0.32451
      H1    18.42133    3.41916    0.25153
       H    12.38422   -4.54809    3.52016
       O    12.66832   -3.80654    4.10261
      H1    13.60333   -3.98744    4.15328
       H    12.62435    7.28262    6.11833
       O    13.05912    7.85191    5.45864
      H1    12.32584    8.44403    5.26466
       H    14.94165    0.54990   -0.87509
       O    14.59805    0.68194   -1.77155
      H1    14.99101    1.54623   -2.06058
       H    14.32164    1.99890    4.38367
       O    14.71652    1.59113    3.58892
      H1    13.88259    1.27767    3.11259
       H    19.22386    3.07240    8.57106
       O    19.49543    3.75696    7.96741
      H1    18.58241    4.02533    7.76374
       H    12.14889   -1.76236    1.29757
       O    11.48703   -2.26125    0.80975
      H1    11.33466   -3.08407    1.28618
       H    15.26064   -3.02783    5.03136
       O    15.42355   -3.96245    5.04486
      H1    16.32405   -4.05426    5.41432
       H    13.50334   -1.54337    8.28048
       O    13.67327   -1.98586    7.43993
      H1    13.98611   -1.30492    6.79562
       H    10.92978    5.77787    4.81693
       O    10.69289    5.57446    5.72642
      H1    11.23592    4.77501    6.00365
       H    16.27163    1.64853    9.93592
       O    15.59688    2.32336   10.09630
      H1    14.70008    1.98697    9.84918
       H     8.57045    1.79614    7.10461
       O     8.41599    1.86150    6.17631
      H1     9.07935    1.25075    5.79757
       H    15.45308    7.02651    5.99626
       O    16.27697    7.31271    5.49912
      H1    16.06073    7.02384    4.61399
       H    10.85984    0.68447   -0.98927
       O    10.71656    1.50789   -0.51989
      H1     9.88916    1.78113   -0.87045
       H    17.82064   -1.04120    5.08352
       O    17.23116   -0.75074    4.40152
      H1    17.03649    0.17743    4.44973
       H    12.21663    4.00332    0.98482
       O    11.44088    4.02896    1.56854
      H1    11.44955    4.96282    1.85837
       H    12.51426   -1.65462    3.41081
       O    12.95693   -0.96389    2.87930
      H1    12.58617   -0.15180    3.27238
       H    14.25702    5.11202    3.81272
       O    13.75077    5.39046    4.58604
      H1    13.50532    6.30903    4.39183
       H    18.67753   -2.40748    6.47030
       O    18.91483   -1.45805    6.47580
      H1    19.87661   -1.46956    6.24890
       H    15.88472   -0.89296    0.60128
       O    16.15285   -0.01104    0.43679
      H1    15.83922    0.45821    1.20196
       H    16.44285    4.93796    2.86079
       O    17.27204    5.13331    3.29580
      H1    17.24213    4.63065    4.18462
       H    11.11813    3.37479    8.66660
       O    11.06245    3.39961    9.62144
      H1    10.39328    2.72783    9.72237
       H    15.74310   -1.02210    4.88759
       O    14.78489   -1.25033    4.95846
      H1    14.31213   -0.98341    4.17806
       H    10.77132    7.15835    2.63304
       O    11.51490    6.56135    2.61841
      H1    12.33800    7.00775    2.55237
       H    11.78749    2.36973    2.77793
       O    12.03737    1.63249    3.34975
      H1    11.32484    1.56405    4.02001
       H    12.43170    2.23281    9.70380
       O    13.07302    1.52242    9.71508
      H1    12.69795    0.71539   10.06851
       H    14.39565    4.71473   -0.93740
       O    13.78913    4.57832   -0.20018
      H1    14.33316    4.35748    0.52964
       H    10.00865   -0.39105    6.52290
       O    10.27614    0.02921    5.72980
      H1    10.00049   -0.50778    5.00691
       H     9.83720    1.38189    1.12600
       O     9.31463    0.81398    1.79747
      H1     9.96055    0.14640    2.03895

