117
frame 6 | Written by MDAnalysis XYZWriter (release 2.4.3)
       H    -7.26126    0.46027   11.18491
       O    -6.64195   -0.24311   11.02630
      H1    -5.92041    0.01919   11.59097
       H   -14.72522    1.10152    4.57892
       O   -15.09331    0.29008    4.16762
      H1   -15.98530    0.45991    3.95122
       H    -8.16751   -5.85581    6.16542
       O    -8.47363   -4.93833    5.96639
      H1    -7.68141   -4.41022    5.88507
       H    -9.34890   -1.99427    2.31587
       O    -8.48248   -2.00419    2.70807
      H1    -8.24013   -1.07479    2.68617
       H   -13.97148    3.09559   10.30434
       O   -13.59045    3.33006    9.41115
      H1   -13.11061    2.56824    9.09444
       H    -9.06112    2.99493    6.15633
       O    -8.23964    2.76765    5.68452
      H1    -7.96145    1.93982    6.02561
       H   -10.42105    4.88636    7.21311
       O   -10.14183    4.10288    7.70124
      H1    -9.28255    4.32148    8.06802
       H   -10.37737   -5.28840    3.16371
       O   -10.32042   -4.91556    4.09853
      H1    -9.40077   -4.78073    4.38204
       H   -10.79640   -4.83412    8.90267
       O   -10.18422   -5.56740    8.95638
      H1    -9.76738   -5.45155    8.09788
       H   -10.60142    0.40395    3.07178
       O   -10.53472    0.90835    2.26118
      H1   -10.32849    0.28122    1.58704
       H   -11.48858   -0.61365    4.80272
       O   -10.68663   -0.09336    4.87110
      H1   -10.71809    0.45314    5.66140
       H    -7.66676    2.83436   10.34715
       O    -8.21158    2.26584   10.87322
      H1    -9.07493    2.74796   10.83079
       H   -13.41467   -2.65779    4.53859
       O   -13.20764   -1.78832    4.95412
      H1   -13.97675   -1.23778    4.98525
       H    -8.21070   -4.59457    9.73749
       O    -8.09318   -3.64159    9.93761
      H1    -7.18687   -3.40416    9.76208
       H    -9.78237   -3.57674    6.33552
       O   -10.40374   -2.92518    6.65519
      H1   -10.90161   -2.65356    5.93007
       H   -12.77792    0.87265   11.60817
       O   -12.61554    0.37096   10.74871
      H1   -13.17354   -0.37785   10.83660
       H    -7.83185   -1.79368    5.85246
       O    -7.50444   -2.42244    5.20199
      H1    -7.76918   -2.15793    4.33264
       H    -7.89461    2.91209    3.89312
       O    -7.56571    3.10490    2.98231
      H1    -6.88553    3.72582    3.17687
       H    -7.63200    5.43312    9.41552
       O    -7.64783    4.72290    8.73694
      H1    -6.87746    4.84268    8.23838
       H   -12.37827   -4.68617    4.33957
       O   -13.26681   -4.37544    4.05242
      H1   -13.87537   -4.83191    4.67284
       H   -10.46237    2.14741    7.56914
       O   -10.47995    1.25077    7.17579
      H1   -11.12313    0.71947    7.67173
       H   -13.26418   -0.51001    8.68799
       O   -12.54731   -0.48147    7.99107
      H1   -12.24386   -1.38830    7.86388
       H   -14.26989   -3.02892   10.43064
       O   -14.22204   -2.05294   10.21843
      H1   -15.01587   -1.70057   10.66244
       H   -11.39864    3.79453    9.96633
       O   -10.84599    3.40881   10.63508
      H1   -11.38251    2.95346   11.25928
       H    -5.82550   -1.77083    9.05657
       O    -5.56823   -2.61787    9.48965
      H1    -5.02500   -2.29561   10.22936
       H    -6.92564    0.49629    3.76984
       O    -7.11028    0.26079    2.86703
      H1    -7.16355    1.13976    2.40426
       H    -5.66592    0.35471    6.58908
       O    -5.77290    0.78490    5.70500
      H1    -4.99087    1.30755    5.48833
       H    -4.79772   -0.74773    5.20011
       O    -4.73232   -1.74720    5.06278
      H1    -5.71892   -1.93540    4.99080
       H    -6.17812   -4.73345    2.09363
       O    -7.00311   -4.55619    2.66120
      H1    -7.08502   -3.61285    2.83877
       H    -9.30688   -0.16440    7.26304
       O    -8.77375   -0.90403    7.07101
      H1    -9.25378   -1.66072    6.87801
       H    -9.76120    5.02134    3.59904
       O   -10.14476    4.39942    2.91978
      H1    -9.39271    3.78361    2.86487
       H    -9.20891    0.26960   13.36388
       O    -8.81017    0.53941   14.24222
      H1    -9.54275    0.19676   14.82764
       H    -5.18597   -3.96425    8.38970
       O    -5.05979   -4.93658    8.21699
      H1    -5.30546   -5.15134    7.26571
       H    -9.31342   -2.42870   10.65250
       O   -10.11826   -2.17393   11.14472
      H1   -10.19628   -1.22782   10.93500
       H   -10.82233    0.21367   10.22733
       O    -9.91444    0.30783   10.01959
      H1    -9.60714    1.01873   10.57869
       H    -7.30417   -0.29043    8.11321
       O    -6.37579   -0.26471    8.31603
      H1    -6.45353   -0.24727    9.30546
       H   -15.57227   -2.73892    6.82378
       O   -15.23306   -3.16765    7.63988
      H1   -14.61226   -2.61491    8.09148
       H    -4.37900    2.03058    9.49243
       O    -3.46856    1.86511    9.71847
      H1    -3.42471    1.17708   10.42061
       H   -11.22473   -2.80834    9.55987
       O   -11.76115   -3.34740    8.97162
      H1   -11.22057   -3.34722    8.13445

