117
frame 5 | Written by MDAnalysis XYZWriter (release 2.4.3)
       H     3.30691   12.82462   13.32531
       O     3.83714   12.05112   13.09549
      H1     4.56095   12.31063   12.56886
       H    -5.78379   17.65478   12.37487
       O    -6.06022   17.10769   13.14358
      H1    -6.47464   16.29634   12.84533
       H    -5.57128   13.02261    8.65026
       O    -5.36633   13.83656    9.14454
      H1    -6.24102   14.24169    9.32433
       H     3.45789   20.10499    4.51851
       O     3.53588   19.10447    4.65938
      H1     3.52501   18.65365    3.78218
       H    -2.51113   16.36984    8.56986
       O    -1.58013   16.53399    8.18814
      H1    -1.49010   15.81357    7.51729
       H     3.60029   18.43674    6.57545
       O     3.36562   18.28204    7.45116
      H1     2.42606   18.60859    7.48866
       H     3.63008   17.35205   12.81303
       O     2.67615   17.45421   12.90620
      H1     2.17291   16.65894   12.63938
       H     5.71906   17.55290   12.28065
       O     5.58444   16.76383   12.79544
      H1     5.71916   16.11265   12.08009
       H     2.61448   15.20385    6.75541
       O     3.08370   15.70408    7.48266
      H1     3.13072   16.64955    7.34285
       H     0.92436   18.45021    4.41313
       O     0.79278   17.48064    4.57318
      H1     1.23924   17.29720    5.40987
       H    -0.48284   12.37953    8.19796
       O    -0.03967   13.22435    8.47508
      H1    -0.19204   13.82653    7.68587
       H     2.41275   13.24422    5.31557
       O     1.92331   13.54708    6.07078
      H1     2.07693   12.77240    6.66377
       H    -0.41083   14.70375    2.43198
       O     0.39660   15.25559    2.52738
      H1     0.23118   15.91562    3.20328
       H    -1.28887   10.96190   12.37748
       O    -1.60792   10.07875   12.52766
      H1    -1.35976    9.76518   13.39654
       H    -3.82173   19.59961   14.62212
       O    -4.30993   18.79157   14.84167
      H1    -4.39096   18.32603   13.99462
       H     5.94678   13.35596   10.96125
       O     5.70802   12.43080   11.24075
      H1     4.83783   12.22796   10.85581
       H    -0.05906   17.61832   10.68943
       O     0.22020   17.18934    9.91685
      H1    -0.55755   16.80570    9.44158
       H    -0.49875   16.91786   15.03623
       O     0.21724   17.26409   15.60254
      H1     0.07968   18.19044   15.39903
       H    -1.29835   14.81197    5.42256
       O    -0.68218   14.63690    6.17957
      H1     0.03812   14.11621    5.77153
       H    -0.53389   13.34561   15.88768
       O    -0.36500   13.54451   14.96441
      H1    -0.72570   14.45589   14.81692
       H     0.89264   15.87764   11.11799
       O     1.08710   15.35475   11.90966
      H1     0.50771   14.56675   11.93126
       H     3.34674   17.58491   15.81647
       O     3.90828   17.78744   16.60139
      H1     3.53187   17.13854   17.20384
       H    -3.40437   16.67647   11.48915
       O    -3.23537   17.23126   12.25085
      H1    -2.49056   17.85223   12.09498
       H     2.45771   14.84552   10.85332
       O     3.21198   14.85791   10.25169
      H1     2.96620   15.22530    9.40728
       H    -1.33374   19.71445   12.49465
       O    -1.66842   19.26970   11.67532
      H1    -1.52183   19.80466   10.92896
       H     0.57959   12.10808   10.89511
       O    -0.05322   12.69518   11.35850
      H1    -0.57901   12.96606   10.59804
       H    -5.07138   20.07300   10.81515
       O    -5.82388   19.45341   10.94689
      H1    -5.58452   18.83319   10.20371
       H    -4.22475   15.26344    9.67507
       O    -3.60438   15.99079    9.81485
      H1    -4.00074   16.78862    9.38482
       H     0.77535   18.39786    8.86895
       O     0.86814   19.15445    8.27623
      H1     0.30975   18.98204    7.47021
       H     6.25253   15.65708    9.95640
       O     5.87323   15.14843   10.70996
      H1     4.90361   15.02966   10.56566
       H     5.94618   13.27265    6.01396
       O     5.97435   14.22173    6.11259
      H1     5.16169   14.56055    6.50915
       H    -3.28811   17.68144   15.84433
       O    -2.99027   16.87980   16.30590
      H1    -2.32097   17.13504   16.96895
       H    -0.73514   18.11195    5.81785
       O    -1.16632   18.59879    6.48478
      H1    -1.43263   17.82375    7.03291
       H    -4.18044   18.96837    8.69280
       O    -4.66066   18.13467    8.56923
      H1    -5.35626   18.31979    7.97205
       H    -5.95799   16.76019    6.48302
       O    -5.56835   15.90410    6.46728
      H1    -5.60100   15.50414    7.36626
       H    -2.21366   15.88971   14.94571
       O    -1.74478   15.87531   14.15558
      H1    -2.23580   16.41663   13.53734
       H     2.18327   14.96961   14.30257
       O     2.34204   14.06608   14.43993
      H1     1.48820   13.69649   14.70043
       H     2.94851   12.67016    9.88484
       O     3.46197   11.86697    9.66795
      H1     2.97611   11.09745   10.00511
       H    -4.08032   15.71470    5.39491
       O    -3.34840   15.07381    5.24198
      H1    -3.18321   15.11707    4.32985

