117
frame 0 | Written by MDAnalysis XYZWriter (release 2.4.3)
       H    11.62335   -7.65926   10.82613
       O    10.73225   -7.26132   10.92036
      H1    10.97414   -6.41091   11.27565
       H     8.58106   -3.23862   16.69623
       O     8.66635   -2.79499   17.55066
      H1     8.80089   -3.58616   18.11655
       H    16.77435   -2.90800   15.91399
       O    16.27104   -2.19564   15.55794
      H1    15.34859   -2.40826   15.77638
       H     3.23599   -2.90999   12.08350
       O     3.46461   -3.46203   12.86255
      H1     2.60153   -3.87455   13.10779
       H     7.02370   -3.49343   11.47353
       O     6.52151   -3.02505   10.81033
      H1     6.28174   -3.69998   10.16312
       H    12.17167    0.60930   13.35501
       O    12.72109   -0.21242   13.66247
      H1    13.26289   -0.35208   12.82939
       H    10.56683   -8.55901   16.78380
       O     9.97085   -8.25082   16.10818
      H1     9.13412   -7.89294   16.48041
       H    12.89280   -7.31846   15.12694
       O    12.26803   -6.58838   15.19137
      H1    11.55742   -6.99712   15.62155
       H    12.07830   -4.70334   13.88097
       O    11.92981   -3.74872   13.97943
      H1    12.08349   -3.31523   13.11285
       H     3.92051   -3.62836   16.06121
       O     4.64842   -3.23642   15.56056
      H1     4.22424   -3.31168   14.69187
       H    13.21421   -3.18869   14.90621
       O    13.68132   -2.72789   15.61924
      H1    12.96886   -2.36484   16.11839
       H     5.60784    1.78481   17.53411
       O     6.11697    2.46670   17.17204
      H1     6.95221    2.01030   17.11119
       H     6.36149   -6.35762   14.03395
       O     6.75518   -6.30489   13.19799
      H1     7.53758   -6.92149   13.19709
       H     9.13873   -8.91337   13.20091
       O     8.80302   -8.38713   12.46092
      H1     9.55779   -7.98069   12.06920
       H     9.67231   -5.97361   17.64054
       O    10.48283   -5.40995   17.49516
      H1    10.20022   -4.97596   16.72273
       H    10.20043   -0.44888   14.31418
       O     9.30654   -0.32866   14.73783
      H1     8.79500    0.20358   14.06833
       H     7.83504    1.98202   12.99090
       O     8.24959    1.15619   12.66320
      H1     7.48656    0.66371   12.32696
       H     8.54444   -1.62880    8.63101
       O     7.66528   -1.37863    8.98732
      H1     7.41450   -2.20612    9.45980
       H    12.29253   -5.20453   17.65970
       O    13.04699   -4.60779   17.64415
      H1    13.04212   -4.09707   16.84352
       H     7.59159   -4.87663   12.61886
       O     8.21714   -4.10524   12.61820
      H1     8.31878   -3.85255   13.52560
       H     4.24597   -5.04382   12.10664
       O     4.47311   -5.94204   11.82304
      H1     5.35318   -6.13401   12.19798
       H    11.59733   -0.91348    9.92831
       O    11.22003    0.03671    9.99898
      H1    10.43252    0.06935    9.38120
       H    12.01723   -1.56167   17.92772
       O    11.52650   -1.54644   17.10962
      H1    10.64943   -1.91914   17.30970
       H     6.20676   -1.18170   11.44822
       O     6.02213   -0.29414   11.69760
      H1     5.19223   -0.14870   12.23174
       H    16.26803   -4.59964   17.78962
       O    15.61282   -4.41257   18.49361
      H1    14.72890   -4.66811   18.15285
       H    11.55099    1.35206   19.67275
       O    11.05238    0.92514   18.97518
      H1    11.71907    0.61912   18.36790
       H     7.00227   -1.33912   16.73618
       O     6.08211   -1.09545   16.96032
      H1     5.59900   -1.51538   16.27288
       H     2.67583   -4.19324   17.90652
       O     3.54549   -4.57198   17.96833
      H1     4.12865   -3.91202   18.33474
       H    15.40998    0.93835   15.21335
       O    14.61548    1.37465   14.80575
      H1    14.02042    0.68952   14.47026
       H     5.00665   -6.64631   16.03615
       O     5.71240   -6.11200   15.66241
      H1     5.37906   -5.17022   15.63593
       H    12.70391   -1.88757   20.16586
       O    13.18210   -1.71235   19.34319
      H1    13.46577   -2.59964   19.08183
       H    11.54269   -3.24693    9.93033
       O    11.98260   -2.42790    9.54155
      H1    12.88101   -2.71186    9.45545
       H    11.48734    1.31131   11.61045
       O    11.53922    1.78206   12.44626
      H1    12.12684    2.49800   12.18943
       H     9.05993    0.84084   16.16094
       O     8.97472    1.41833   16.94631
      H1     9.06295    0.87142   17.73707
       H     8.38419    0.71795   10.22336
       O     8.62687    1.47708    9.65179
      H1     8.02088    1.34653    8.92637
       H     6.93960   -6.79444   16.94224
       O     7.74973   -7.08811   17.38432
      H1     7.41287   -7.73408   18.03378
       H    10.13851   -4.84902    9.99997
       O    10.42705   -4.47341   10.80762
      H1     9.64173   -4.26842   11.43229
       H    10.22051   -3.42461   14.39661
       O     9.41925   -3.16085   14.91031
      H1     9.37523   -2.21572   14.84170
       H     5.19873   -2.71804   19.42516
       O     5.74503   -3.25093   18.88020
      H1     5.99547   -2.60347   18.20220

