117
frame 9 | Written by MDAnalysis XYZWriter (release 2.4.3)
       H    -4.42875    5.08003   12.90129
       O    -4.35225    4.24465   12.31208
      H1    -4.29947    3.49098   12.90730
       H     1.85486    4.23120   10.17252
       O     2.28226    4.93005   10.69413
      H1     1.57364    5.15311   11.35747
       H     8.07193    2.86519   16.46924
       O     7.58295    2.03709   16.44393
      H1     6.82905    2.18746   15.89579
       H     5.72552    6.08741   17.73506
       O     4.82129    6.49430   17.54487
      H1     4.63357    6.16428   16.67515
       H    -0.05049    3.47044   13.93001
       O    -0.40132    3.49743   14.81448
      H1     0.18011    2.84500   15.25566
       H     1.66590   -1.62585   18.86652
       O     1.99421   -1.81525   17.97207
      H1     2.18329   -2.75177   17.81053
       H    -4.02966    2.56974   17.85116
       O    -3.50252    3.22464   18.29282
      H1    -3.22741    3.83742   17.56831
       H     3.57252    5.99982   18.63444
       O     2.79209    5.63766   19.12785
      H1     2.19708    6.43515   19.17867
       H     3.17055    6.02387   13.91763
       O     3.77859    6.80334   13.89637
      H1     3.39304    7.49128   14.44608
       H    -1.54769   -0.30309   13.04021
       O    -1.99511   -0.73303   13.85164
      H1    -2.00049   -0.04802   14.52326
       H     1.43941    4.78296   14.52156
       O     2.21225    4.46319   14.06484
      H1     2.63052    3.84787   14.69123
       H     5.08288   -0.77439   17.32382
       O     5.16914   -1.05667   16.41251
      H1     5.19339   -2.00035   16.38614
       H     2.13158    8.50519   19.42750
       O     1.85121    8.17014   18.58566
      H1     2.44128    8.66466   17.98751
       H     0.82282    1.12587   16.72968
       O     1.10360    2.05338   16.62173
      H1     0.58583    2.61382   17.18322
       H    -1.84026    0.36641   19.60971
       O    -1.72292   -0.26015   18.85596
      H1    -2.55329   -0.40356   18.41395
       H     0.01988   -3.14499   14.30538
       O    -0.86269   -3.16884   13.86973
      H1    -1.20053   -2.23680   14.06250
       H     0.01345    8.38725   18.79150
       O    -0.86191    8.78616   18.95080
      H1    -1.08988    8.78509   19.91763
       H     2.74684   -1.04071   13.84540
       O     3.57915   -1.49598   14.15886
      H1     4.03285   -0.96896   14.81833
       H     0.54206   -0.77387   15.34434
       O     0.33698   -0.45010   16.24342
      H1     0.77876   -1.13474   16.77635
       H     6.14425    0.90442   14.15990
       O     5.71722    1.78319   14.30641
      H1     4.96442    1.61822   14.87771
       H     4.82052    2.28396   19.21520
       O     5.37128    2.52298   18.51781
      H1     6.00519    1.78078   18.31649
       H     6.12542    3.64629   13.84116
       O     6.78190    4.36659   13.88877
      H1     6.47298    5.12201   13.32928
       H    -1.73069    7.37605   17.51370
       O    -1.88744    7.34117   16.56044
      H1    -1.04326    7.58188   16.12829
       H    -4.13863   -0.38407   16.72608
       O    -3.69721   -1.16321   17.07123
      H1    -2.81108   -1.21152   16.65668
       H    -1.73232    4.40487   16.07668
       O    -2.57697    4.79453   16.25096
      H1    -2.33540    5.72685   16.24716
       H     0.91743    6.52022   15.87582
       O     0.45423    6.98020   15.16495
      H1     0.91653    7.79863   15.05460
       H    -1.76155    2.94828   18.06904
       O    -0.87713    3.32216   18.11563
      H1    -0.74727    3.53962   19.03481
       H     1.80522    5.34563   17.82028
       O     1.23107    5.31686   17.07132
      H1     0.37674    5.08746   17.46138
       H     2.90812    2.23086   16.63426
       O     3.79891    2.51441   16.39311
      H1     4.37093    2.43537   17.25088
       H    -0.45526    6.33779   11.78635
       O     0.39352    6.72177   12.15744
      H1     0.31862    6.60303   13.14196
       H     7.68721    4.61135   18.17332
       O     6.84441    5.00556   18.53179
      H1     6.28321    4.22509   18.69819
       H    -1.62957    0.35228   11.17350
       O    -1.16164    0.76374   11.86476
      H1    -0.18121    0.50129   11.83242
       H     1.03450   -1.00846   12.50685
       O     1.06580   -0.58376   13.39280
      H1     1.31688    0.33796   13.22697
       H     4.11866   -0.34254   18.80405
       O     5.05070   -0.25664   19.01553
      H1     5.11619   -0.71765   19.87295
       H    -1.41742    2.07936   15.35077
       O    -1.81085    1.28825   15.78611
      H1    -1.05327    0.69784   16.11975
       H     2.74452    1.94493   11.88049
       O     1.86810    2.02767   12.27442
      H1     1.75105    2.97749   12.25641
       H    -5.62393    1.03259   17.61268
       O    -5.23225    1.26398   16.77335
      H1    -5.97941    1.63163   16.25224
       H    -3.44308    1.66926   14.43659
       O    -4.13563    1.89399   13.83494
      H1    -4.91985    2.04097   14.33882
       H    -1.76504    3.80720   12.73394
       O    -0.95033    3.69210   12.19425
      H1    -0.95522    2.72448   12.02534

