117
frame 11 | Written by MDAnalysis XYZWriter (release 2.4.3)
       H    18.47008    4.89415    5.72108
       O    18.09005    4.11432    6.08467
      H1    17.46594    4.44909    6.69808
       H    15.99671    2.84221    2.74915
       O    16.54709    3.27651    2.07711
      H1    16.84394    2.61614    1.46259
       H    17.48146    4.86669    2.15656
       O    18.25191    5.40531    2.40376
      H1    19.02320    4.82167    2.30784
       H    18.54771   -2.77171    0.65667
       O    18.25488   -3.67702    0.51110
      H1    18.29737   -4.27674    1.27887
       H    15.78229    3.18785    8.45290
       O    15.63552    3.75725    7.70814
      H1    15.16872    4.48275    8.09713
       H    12.99661   -3.32302   -1.30666
       O    12.74432   -2.41077   -1.16907
      H1    11.98949   -2.37079   -0.51819
       H    14.98337    2.72860   -5.63631
       O    14.65844    2.79520   -4.72804
      H1    14.10885    3.55196   -4.69755
       H    10.63714    4.56592   -2.67525
       O    11.11605    5.37442   -2.63355
      H1    11.83007    5.30980   -1.99068
       H    14.20343    5.46875    5.36857
       O    13.81750    4.67657    5.80599
      H1    14.46420    4.24037    6.39898
       H    18.18852    6.86656   -4.53623
       O    17.76839    6.45629   -3.75729
      H1    17.64089    5.51232   -3.90938
       H    18.26180    0.96104    0.34606
       O    17.81345    1.75958    0.01421
      H1    18.56828    2.41584   -0.12834
       H    16.11163   -1.49920   -4.24258
       O    16.24517   -0.67740   -3.78668
      H1    15.37157   -0.41385   -3.49353
       H    19.16311    1.04711    2.70206
       O    19.61895    0.30284    2.27603
      H1    19.97935   -0.22986    2.95616
       H    14.68175    0.37889   -1.35423
       O    14.36850    0.82249   -2.16229
      H1    14.61489    1.73482   -1.93389
       H    18.74709    6.16302    4.05705
       O    18.51638    6.28659    4.96879
      H1    19.25021    6.72481    5.42952
       H    14.53090    3.47946    4.91150
       O    14.90538    2.72597    4.36076
      H1    14.22361    2.07158    4.47768
       H    19.31287    1.95718    7.55215
       O    19.66408    2.77926    7.94424
      H1    19.00626    3.45827    7.52809
       H    17.30938    8.15078    4.86496
       O    16.74299    8.52489    4.19486
      H1    15.99236    7.88489    4.18805
       H    15.75724   -3.92388    3.06015
       O    16.07285   -4.54425    3.80090
      H1    16.06553   -4.00238    4.59745
       H    13.71924   -2.84177    6.51970
       O    14.50819   -3.13491    6.04189
      H1    14.52578   -2.47514    5.32264
       H    16.74317   -3.53997    1.06133
       O    15.72863   -3.45200    1.20402
      H1    15.36194   -3.22708    0.30321
       H    11.58207    2.06936   -1.61075
       O    11.32198    2.78119   -1.04052
      H1    10.41141    3.05021   -1.37886
       H    16.90475   -0.13208    4.97700
       O    16.38193    0.35524    4.33465
      H1    16.46989    1.30622    4.38907
       H    12.70321    0.37781   -2.98851
       O    11.74757    0.61055   -2.91793
      H1    11.28825   -0.22960   -3.04250
       H    10.29838    3.30399    1.84643
       O    10.44358    2.38718    1.55194
      H1    10.76612    2.51796    0.63816
       H    10.57274   -1.29247    3.29571
       O    11.46859   -1.42850    2.92343
      H1    11.92942   -0.57846    2.93742
       H    13.90695    7.17568    3.31519
       O    14.13781    6.98103    4.22779
      H1    13.75064    7.63708    4.83075
       H    16.22660    2.65292   -0.58284
       O    15.59559    3.11235   -1.12090
      H1    16.15445    3.15910   -1.90975
       H    16.44492   -2.78304   -0.94499
       O    15.59429   -2.73027   -1.42669
      H1    15.39362   -1.80027   -1.59393
       H    16.60649    3.45202   -4.31893
       O    17.30981    3.71947   -3.70308
      H1    18.17639    3.59149   -4.11462
       H    13.83334   -1.24638   -0.32569
       O    14.45988   -0.72341    0.19496
      H1    14.23544   -0.95610    1.13913
       H    17.73596    3.19094    3.43678
       O    18.43564    2.65800    3.80645
      H1    18.39650    2.88473    4.73034
       H    20.03983    8.07261   -2.04164
       O    20.05017    7.36684   -2.76615
      H1    19.18787    7.12184   -3.03627
       H    15.08914   -0.81988    4.03810
       O    14.56878   -1.61466    3.87100
      H1    13.65734   -1.26671    3.93661
       H    15.65068    7.55729    0.18258
       O    14.90272    7.76334   -0.38457
      H1    14.55036    6.92597   -0.60360
       H    15.89245    6.85611   -3.93539
       O    15.24632    7.53338   -4.33332
      H1    15.45969    8.32788   -3.80415
       H    12.36605    1.79655    3.48111
       O    12.67445    1.03061    3.94174
      H1    11.91651    0.76499    4.46873
       H    14.20821    4.65113   -0.68699
       O    13.65624    5.40680   -0.85540
      H1    13.17928    5.54650   -0.06110
       H    17.49539    7.23012    1.64221
       O    17.68733    7.81595    0.85142
      H1    18.37632    7.36120    0.45249

