117
frame 3 | Written by MDAnalysis XYZWriter (release 2.4.3)
       H     8.94549    4.36417   -8.69839
       O     9.27724    5.16027   -8.34571
      H1     9.20262    4.92673   -7.44346
       H    13.01292    4.07562   -6.25135
       O    12.82507    4.57984   -5.44879
      H1    13.04967    5.49352   -5.58793
       H    11.76838   -0.76337   -7.48199
       O    12.19159   -1.54781   -7.80483
      H1    12.39834   -1.40746   -8.67530
       H    15.80183    2.75116   -4.04683
       O    15.69096    3.66471   -3.72361
      H1    15.86217    4.13255   -4.55523
       H    11.05528    7.55787   -1.48286
       O    11.20922    8.33863   -0.94589
      H1    10.60340    8.93560   -1.36728
       H    11.15421    2.32006   -2.15680
       O    11.63610    2.55277   -1.39333
      H1    12.39716    3.08931   -1.77178
       H     8.99796    9.62787   -2.28712
       O     9.00342    8.87949   -2.98405
      H1     8.61167    9.30454   -3.76954
       H    15.62218    5.44964   -7.05216
       O    16.02842    5.36591   -6.19666
      H1    16.79349    5.97058   -6.24539
       H     9.74971    1.27871   -7.24942
       O     8.84027    1.35956   -7.00003
      H1     8.44217    1.98666   -7.62668
       H    12.87809   10.74253   -2.44301
       O    12.43941   10.03434   -2.92389
      H1    12.13341    9.49740   -2.19198
       H    10.83535    4.83310    1.23383
       O    10.61598    3.91726    1.02544
      H1    11.17641    3.69130    0.22716
       H    10.06613    8.02194   -8.64328
       O    10.05157    7.65748   -9.54444
      H1     9.44393    6.87896   -9.47005
       H     8.25461    7.24713    0.39674
       O     8.93228    6.61022    0.19975
      H1     8.49161    5.75535   -0.04518
       H    10.82330    0.66878   -3.71271
       O    10.09207    1.03006   -3.12266
      H1     9.34893    0.99406   -3.71997
       H    13.26714    0.78331   -1.64299
       O    13.24834    0.05327   -2.27414
      H1    12.70197   -0.63715   -1.76243
       H    13.16994    2.80987   -4.42382
       O    13.22800    1.87881   -4.50555
      H1    13.20808    1.58356   -3.61728
       H     5.93805    5.29639   -5.65306
       O     6.49985    4.77977   -6.21822
      H1     6.86079    4.07874   -5.59019
       H     9.29288    8.19001   -6.32621
       O     8.75203    8.59575   -7.03028
      H1     8.19617    7.87499   -7.38440
       H     6.80500    1.83895   -9.17525
       O     7.41920    2.56438   -9.02265
      H1     6.92932    3.39672   -9.09127
       H    12.39726    5.23450   -2.30651
       O    11.78461    5.96995   -2.43704
      H1    12.01792    6.33903   -3.28831
       H    10.05127    4.68477   -3.91264
       O    10.23976    4.31288   -4.78692
      H1    11.20755    4.40253   -4.95636
       H     7.02379    6.17644   -7.52853
       O     6.91207    6.83008   -8.24154
      H1     6.01612    7.08607   -8.09046
       H     7.52432    2.20189   -3.28423
       O     7.33628    1.58181   -2.53750
      H1     8.02819    1.74726   -1.85784
       H    13.01208    9.76469   -6.65450
       O    13.89357    9.51578   -6.40181
      H1    13.72452    8.63980   -5.91178
       H    12.05642    1.35224   -5.83623
       O    11.60466    1.09409   -6.62851
      H1    11.53701    1.90083   -7.14553
       H     7.18322    6.00524   -3.08445
       O     6.34005    6.44865   -2.87971
      H1     6.49675    7.33554   -3.24202
       H    13.45929    3.32394   -8.21797
       O    14.01912    3.10213   -7.42714
      H1    14.31657    2.15737   -7.38535
       H    15.93401    2.88060   -7.85405
       O    16.54053    2.30095   -8.31862
      H1    16.60247    2.75757   -9.17681
       H    14.66445   -0.05766   -7.38015
       O    14.50688    0.60207   -6.71766
      H1    13.53294    0.66423   -6.82337
       H    14.60831    7.04714   -0.54935
       O    14.07348    7.79853   -0.55238
      H1    13.18987    7.54302   -0.88739
       H    14.93214    6.28145   -5.50875
       O    14.31050    6.94609   -5.09829
      H1    14.69553    7.29877   -4.31259
       H    10.89303    4.21918   -9.20932
       O    11.48560    3.55795   -8.83093
      H1    11.69715    2.97172   -9.55861
       H     7.84104   -0.27582   -4.13463
       O     8.12646   -0.98275   -4.77325
      H1     8.56202   -1.65347   -4.24448
       H     8.02663    1.93943   -5.31891
       O     7.86434    2.85607   -4.89356
      H1     8.74960    3.28787   -4.97894
       H    10.51818    6.41371   -4.92404
       O    10.36837    7.35245   -5.14449
      H1    10.45008    7.87617   -4.35963
       H    14.63404    4.28797   -2.35379
       O    13.84563    4.29392   -1.78630
      H1    13.99022    4.19190   -0.81527
       H     7.26981    3.40585   -0.38796
       O     8.13471    3.86226   -0.38967
      H1     8.82631    3.51207    0.21318
       H     8.93906    6.21373   -2.38633
       O     8.74834    5.39771   -2.82410
      H1     8.57864    4.73555   -2.08734
       H     9.59163    0.69696   -1.23067
       O     8.99828    0.55844   -0.47801
      H1     9.61703    0.63480    0.30155

