117
frame 2 | Written by MDAnalysis XYZWriter (release 2.4.3)
       H     6.95665   -6.08392  -14.42445
       O     7.09238   -6.66754  -13.64538
      H1     7.82234   -6.25762  -13.15949
       H    10.21491   -8.65604  -10.71000
       O     9.43449   -8.16159  -10.51501
      H1     9.31574   -7.61751  -11.30469
       H    10.73308   -5.90542  -10.49807
       O    11.38668   -6.07494   -9.84617
      H1    11.38175   -7.02476   -9.61659
       H     7.71106   -8.25082   -9.94050
       O     6.89816   -8.54059   -9.44071
      H1     6.12857   -8.14423   -9.93012
       H    13.37927   -5.45180   -4.07398
       O    14.11016   -5.48614   -3.44065
      H1    14.02661   -6.40205   -3.06585
       H    13.81782    1.27261   -9.89635
       O    13.09087    1.17783   -9.22092
      H1    12.60158    0.40152   -9.51145
       H    12.10812   -1.73745   -7.18403
       O    12.44307   -2.65501   -7.35804
      H1    11.63916   -3.08106   -7.45553
       H     5.67726   -4.96220  -10.61742
       O     4.73324   -5.16477  -10.47558
      H1     4.43454   -4.54851   -9.82150
       H     9.73253    0.23086   -7.30055
       O     9.12777    0.94061   -7.24082
      H1     8.46657    0.85532   -8.01559
       H     7.29986   -5.35795   -6.38966
       O     7.59774   -4.57754   -6.87397
      H1     6.89336   -3.90324   -6.55747
       H    10.45142   -3.10649  -11.94778
       O    10.55094   -3.41814  -12.83595
      H1    10.20599   -2.71381  -13.37725
       H    10.67729  -10.43193   -5.97382
       O    10.90380   -9.50114   -5.84822
      H1    10.38763   -9.05985   -6.51689
       H     9.81937   -7.30655   -4.22947
       O    10.02864   -8.06924   -3.71819
      H1     9.60781   -8.81483   -4.17079
       H     7.39408   -4.02498   -9.56520
       O     7.38719   -4.49529  -10.39825
      H1     7.34039   -3.83415  -11.11340
       H    13.85283   -1.65185  -11.59221
       O    13.66453   -1.78062  -10.69863
      H1    12.70808   -1.99537  -10.56521
       H    12.47768   -8.66852   -5.53863
       O    13.28699   -8.13826   -5.49328
      H1    13.55378   -8.34474   -4.58382
       H    12.24742   -9.38217   -8.58927
       O    12.07394   -8.43698   -8.64629
      H1    12.93043   -8.04506   -8.58895
       H    10.56352   -4.93115   -8.60453
       O    10.04517   -4.33305   -7.96205
      H1     9.22788   -4.80750   -7.78850
       H    14.91979   -4.03674   -9.08092
       O    14.23196   -4.32826   -8.43404
      H1    13.77278   -3.54686   -8.01725
       H    13.70311   -7.26851   -7.08229
       O    14.29750   -7.04011   -7.84604
      H1    14.17900   -6.11290   -8.01153
       H     8.08661   -7.65891   -6.72906
       O     7.21554   -7.36313   -6.67098
      H1     6.89845   -7.48007   -7.57494
       H     6.66199    0.23726   -9.82907
       O     6.96050    0.91430   -9.18612
      H1     6.19615    1.50000   -9.13653
       H    10.11988   -2.13509   -9.83439
       O    10.75436   -2.07164  -10.53488
      H1    10.69339   -1.14454  -10.86922
       H     8.67601   -1.71164   -1.97458
       O     9.34662   -1.89246   -2.62063
      H1     9.86607   -1.09974   -2.76417
       H     8.50021   -1.35422   -7.36325
       O     8.65766   -1.85678   -8.16636
      H1     9.08061   -2.70270   -7.90625
       H    12.16818   -3.51180   -4.42170
       O    12.28820   -2.56398   -4.57575
      H1    12.39001   -2.55620   -5.56836
       H    12.64104    0.43647   -5.95534
       O    12.29212    0.11180   -6.76295
      H1    12.86204    0.64700   -7.34236
       H     9.72749   -5.00736   -2.88737
       O    10.21479   -4.44084   -2.25946
      H1     9.92132   -3.46972   -2.36708
       H    14.38888   -0.41124   -3.50821
       O    14.81686   -1.02951   -4.04871
      H1    14.01051   -1.50828   -4.42190
       H     5.34732   -2.90352   -5.39950
       O     6.10139   -2.61271   -5.91798
      H1     6.74695   -2.18180   -5.33906
       H    14.47939   -6.38565  -10.76182
       O    13.73088   -5.95412  -11.17411
      H1    12.88320   -5.96471  -10.66647
       H     9.49994   -8.11425   -8.70558
       O     9.36772   -8.42365   -7.84390
      H1     8.71508   -9.16407   -7.72829
       H     7.46129   -0.13885   -4.68693
       O     7.88485   -1.01046   -4.87544
      H1     8.41312   -1.29844   -4.15997
       H     6.85680   -1.93448  -12.00076
       O     7.15084   -2.75035  -12.53734
      H1     6.35363   -3.03066  -13.10380
       H    12.65119   -5.45115   -6.42050
       O    12.24975   -5.19881   -5.58032
      H1    11.31841   -5.05998   -5.86638
       H     9.72326   -5.00652  -12.30339
       O     9.09197   -5.77912  -12.02252
      H1     8.63736   -5.27852  -11.29716
       H     7.51828   -5.19852   -2.95636
       O     8.07244   -5.81118   -3.49964
      H1     8.05440   -6.52843   -2.78845
       H    16.33282   -4.33805  -10.73481
       O    15.86592   -3.58745  -10.38330
      H1    15.00151   -3.51899  -10.80008
       H     5.51855   -1.49116   -7.79578
       O     4.64938   -1.41408   -8.17725
      H1     4.26447   -0.62822   -7.70431

