117
frame 1 | Written by MDAnalysis XYZWriter (release 2.4.3)
       H     9.02527    5.11580   10.87729
       O     8.89260    5.96507   10.47235
      H1     8.36253    6.57116   10.95142
       H     5.56383    3.50708   10.56286
       O     4.69198    3.36585   10.99112
      H1     4.69938    2.50897   11.50292
       H     1.05207    4.57245    3.17103
       O     0.61963    5.40183    3.41471
      H1     0.99724    6.19804    3.03178
       H     7.13390    3.50152    4.83915
       O     7.84062    2.83207    4.79338
      H1     7.58319    2.22994    5.55825
       H     2.81476    3.54855    8.42766
       O     3.75078    3.67551    8.29300
      H1     4.13465    3.53488    9.19941
       H     1.47922    4.76637    6.66877
       O     1.05608    4.58042    7.50915
      H1     1.11384    5.39870    7.97190
       H     4.67209    5.87934    1.86970
       O     4.67001    5.13008    1.34543
      H1     3.72749    4.92647    1.17512
       H     3.48562    5.10212    5.23628
       O     2.56721    5.21637    5.41808
      H1     2.13630    4.95622    4.57662
       H     5.96994    4.88487    4.08142
       O     5.50142    4.74976    4.90783
      H1     5.94388    5.28998    5.62151
       H     9.25034   -0.64958    2.71126
       O     8.90897   -0.44711    3.58156
      H1     8.33139    0.35897    3.52855
       H     9.85628    7.86248    4.78170
       O    10.26035    6.99019    4.71852
      H1    10.53716    6.95503    3.73503
       H     1.00439    7.31024    1.54393
       O     1.91389    7.11638    1.81710
      H1     2.21612    7.89491    2.24657
       H     5.13666    2.98773    1.12467
       O     5.51455    2.22696    0.72554
      H1     6.04277    2.47334   -0.02658
       H    12.90575    6.74746    7.02496
       O    12.77115    7.03774    6.08685
      H1    11.81697    7.00423    5.98375
       H     3.44190    7.50217    0.49794
       O     4.04897    8.03328    0.00250
      H1     4.36733    7.50439   -0.74021
       H     7.05705    0.25450    6.09937
       O     7.02140    1.00454    6.72743
      H1     7.56669    0.91407    7.47599
       H     8.20655    6.85706    4.30011
       O     7.45149    6.74450    3.71489
      H1     7.61374    7.28309    2.91165
       H     8.83193    7.12707    8.45281
       O     8.79002    7.14323    7.51587
      H1     9.31013    6.37881    7.24651
       H     9.49987   10.22582    5.44064
       O     9.08545    9.64550    4.78019
      H1     8.32587   10.17290    4.46033
       H     7.48769    8.35820    0.97134
       O     8.17405    7.75691    1.19342
      H1     7.85620    6.86435    0.99771
       H     6.26908    1.63212    2.15337
       O     6.33521    1.40387    3.07498
      H1     6.90077    2.06177    3.51383
       H     3.52092    8.81151    3.24431
       O     2.65489    9.22828    3.26963
      H1     2.53881    9.96056    2.71582
       H     6.83992    6.60672    7.25821
       O     6.26009    5.83732    7.38783
      H1     5.37990    6.23862    7.46094
       H     5.20404    1.29782    6.81835
       O     4.23534    1.35072    6.63159
      H1     4.07307    2.20125    7.10697
       H     4.15810   12.03045    3.51887
       O     4.45011   11.43892    4.22360
      H1     3.83467   10.68458    4.16858
       H     7.29183   10.27051    8.30067
       O     7.09404   10.23749    7.35646
      H1     7.78781    9.67840    6.97267
       H    11.21602    3.67241    6.44118
       O    11.29095    4.14058    7.24556
      H1    10.85186    3.60765    7.94797
       H     4.76741    6.28209   11.41600
       O     4.86133    6.93788   10.68824
      H1     5.74229    7.31744   10.81992
       H     9.89497    7.18429    1.66644
       O    10.75350    6.84523    1.94250
      H1    11.40502    7.51524    1.71666
       H     2.11870    6.90583    8.43994
       O     1.15491    7.09905    8.47223
      H1     1.17607    8.05387    8.30157
       H     1.16482    8.21341    4.75568
       O     0.35987    7.83531    5.12478
      H1     0.45416    6.89855    5.23126
       H     3.73701    5.47825    8.20798
       O     3.70586    6.44250    8.24478
      H1     4.20983    6.56991    9.08528
       H     0.61744    2.37324    2.66832
       O     1.44537    2.79217    2.90053
      H1     2.06326    2.10649    3.17864
       H     3.66665    1.30649    4.83663
       O     3.55540    1.11993    3.84409
      H1     4.48505    1.24470    3.58182
       H     9.90178    2.92438    9.55395
       O    10.28338    2.22354    9.00663
      H1     9.56619    1.53214    9.04814
       H     5.74146    7.54881    3.16932
       O     5.01586    7.78299    2.60868
      H1     5.29935    8.22635    1.79452
       H     6.68306    4.86164    0.86517
       O     7.59156    5.14267    0.87876
      H1     8.14395    4.52735    1.35276
       H    10.42240    2.13521    4.53889
       O    10.51231    3.00097    4.89584
      H1     9.59566    3.33639    4.92474
       H     6.74526    4.13374    8.42030
       O     7.00421    3.60544    9.16644
      H1     7.76823    4.07272    9.46135

