117
frame 6 | Written by MDAnalysis XYZWriter (release 2.4.3)
       H     3.41635   13.19299   16.09209
       O     4.11246   13.42082   16.73997
      H1     4.93636   13.09121   16.26340
       H     4.55750   11.38093   16.81522
       O     4.38423   10.44046   16.71155
      H1     5.07085   10.03191   17.23756
       H     5.23561   12.25159   14.12105
       O     5.89348   12.14133   14.85958
      H1     5.83479   11.25644   15.20920
       H     3.97403   15.00429   18.06357
       O     3.65013   15.73829   18.54280
      H1     4.48420   16.23096   18.81994
       H     3.51671   12.68758   13.02318
       O     4.21810   12.10162   12.76550
      H1     4.08053   11.93796   11.84717
       H    -5.65303   15.57623   14.02643
       O    -6.32544   15.87689   14.59022
      H1    -7.07319   15.56081   14.05458
       H     2.42687   18.30717   13.96688
       O     2.07462   19.19384   13.82885
      H1     2.72073   19.76106   14.36270
       H     3.92998   16.40485   13.66088
       O     3.06027   16.17203   14.01474
      H1     2.60190   15.78294   13.28463
       H    -4.36308   13.35769   19.23007
       O    -3.98427   12.65803   18.64950
      H1    -3.43574   12.12837   19.26900
       H     1.02694   14.29148   18.70269
       O     0.20174   14.68557   18.33225
      H1     0.28065   14.98037   17.40259
       H    -0.75315   10.34562   12.59681
       O    -1.44307    9.77732   12.94037
      H1    -1.54752   10.05292   13.91346
       H    -3.66750   20.19973   14.75876
       O    -3.84317   19.37778   15.23594
      H1    -3.75464   18.71197   14.51849
       H     2.33071    9.59794   14.52033
       O     2.03861    9.45162   15.46988
      H1     2.85238    9.50715   16.01513
       H    -0.80749   13.24680   17.63348
       O    -1.43616   12.55283   17.28497
      H1    -2.15900   12.56476   17.96670
       H    -0.46407   14.81895   15.27188
       O     0.17225   15.43083   15.67968
      H1    -0.30604   16.26147   15.83889
       H    -1.53706   12.53699   14.84721
       O    -0.88177   13.03189   14.36303
      H1    -0.71518   12.50564   13.57810
       H     0.49602   16.04613   11.53779
       O     1.25947   15.53255   11.82376
      H1     0.99579   14.61503   11.81293
       H     1.80260   16.58646   16.05609
       O     2.02404   17.27814   16.71288
      H1     2.55964   16.89842   17.45605
       H    -6.22639   15.09162   16.36197
       O    -5.47064   15.04645   16.97436
      H1    -4.68149   14.87758   16.45256
       H     8.32037   14.63315   18.98618
       O     7.47071   14.93367   19.32745
      H1     7.15170   14.18463   19.86753
       H    -3.53104   15.52495   12.28136
       O    -3.68958   15.97043   13.11117
      H1    -3.06507   16.70815   13.05113
       H    -0.62968   17.72302   19.14128
       O    -1.20681   16.99844   18.88104
      H1    -0.59491   16.30831   18.81983
       H    -0.60089    5.96268   18.36624
       O    -0.48669    6.36195   17.47897
      H1    -0.09601    7.19475   17.58667
       H    -2.19582   19.37334   12.87607
       O    -2.74137   18.82000   12.27710
      H1    -3.49987   19.34085   12.18012
       H     1.26766   11.91433   11.97811
       O     0.31705   12.21625   12.10984
      H1     0.01019   12.32359   11.19178
       H    -2.95706   11.04669   15.52830
       O    -2.32499   10.28432   15.57387
      H1    -1.60227   10.53507   16.14656
       H     7.50035   17.91539   19.47078
       O     6.76639   17.55279   18.91198
      H1     6.86932   16.57189   18.96012
       H    -2.40471   18.19943   16.17351
       O    -2.27633   17.24597   16.28286
      H1    -2.03131   17.16042   17.23456
       H    -4.72911   12.58294   14.49817
       O    -4.81140   11.61198   14.37142
      H1    -5.21696   11.26919   15.16714
       H    -5.83331   17.28258   16.57723
       O    -6.42217   17.99408   16.94871
      H1    -5.80010   18.65997   17.40536
       H     0.71018   19.43086   18.91089
       O     0.98564   19.70580   17.99712
      H1     1.57433   18.98109   17.78022
       H     0.52836   10.29056   16.78569
       O    -0.19188   10.33477   17.37603
      H1    -0.46239   11.27770   17.30289
       H     0.22367   19.17328   13.97885
       O    -0.65709   19.52630   14.10075
      H1    -0.98557   19.27489   14.95753
       H    -2.62726   14.01084   16.00598
       O    -3.40094   14.19141   15.37013
      H1    -3.07074   14.90507   14.81439
       H     3.14141    9.30556   12.48474
       O     2.62893    9.95645   13.04294
      H1     3.35353   10.52785   13.31223
       H     2.54496   14.51657   14.44802
       O     2.35397   13.56153   14.32902
      H1     1.38205   13.58978   14.44868
       H    -5.44158   11.88489   17.48094
       O    -6.09806   11.40654   16.97368
      H1    -6.71942   12.10793   16.71079
       H    -5.48188    9.90874   16.42565
       O    -5.12130    9.10535   15.95244
      H1    -4.18930    9.26542   15.83560
       H    -5.31828   15.26959   19.00721
       O    -4.90506   14.94866   19.82044
      H1    -5.61418   14.50897   20.31378

