117
frame 4 | Written by MDAnalysis XYZWriter (release 2.4.3)
       H     2.62114   17.74721  -10.07413
       O     3.40490   17.19014  -10.27142
      H1     3.58950   16.66638   -9.44271
       H     3.64909   17.62748  -14.81546
       O     4.33826   17.69455  -15.44921
      H1     4.01571   17.94661  -16.32361
       H     6.34915   20.18304  -14.82726
       O     5.45313   19.89441  -14.58669
      H1     5.30345   18.99038  -14.87207
       H    13.45942   14.15047  -17.65583
       O    14.07389   14.76708  -18.08834
      H1    14.22685   15.54802  -17.48968
       H     9.70002   14.35068  -12.62363
       O     9.22519   14.75617  -13.42620
      H1     8.71694   14.06127  -13.87372
       H     8.15617   17.97341  -17.90977
       O     8.02139   18.95063  -18.10112
      H1     8.76098   19.23265  -18.60772
       H     7.82585   15.90481  -13.01345
       O     7.23843   16.67327  -12.98054
      H1     7.70701   17.51052  -13.15194
       H    16.07613   14.99660  -13.05535
       O    16.85153   15.39405  -12.56567
      H1    16.80377   14.85775  -11.78208
       H    14.11517   11.82008  -11.64800
       O    14.76207   12.41236  -12.04744
      H1    14.46969   13.29273  -11.74625
       H     3.10527   15.38387  -14.77067
       O     2.47295   15.47137  -15.52792
      H1     3.03309   15.04339  -16.21566
       H     5.29422   15.85367  -16.04853
       O     5.66096   15.08899  -16.53891
      H1     5.02014   14.94872  -17.27378
       H    17.61513   16.61500  -16.13859
       O    17.31059   17.33879  -16.62845
      H1    16.34886   17.24610  -16.84216
       H     9.45871   19.89784  -15.16888
       O     9.88189   19.30097  -14.52180
      H1    10.68329   19.80657  -14.22009
       H    13.21917   17.52983  -10.22734
       O    13.61959   16.67255  -10.00301
      H1    13.28089   15.98651  -10.63103
       H    11.40028   12.54797  -11.52699
       O    10.77150   13.12195  -11.96396
      H1    10.54577   12.57534  -12.74546
       H     9.96919   17.44697  -14.81616
       O    10.32230   16.61772  -15.12985
      H1     9.80293   15.91291  -14.63985
       H    11.78996   17.43204   -6.66254
       O    12.37688   17.54778   -7.42465
      H1    12.62499   16.64119   -7.55135
       H     9.34751   14.83876   -9.03129
       O     8.91426   15.68291   -8.79188
      H1     9.57679   16.31569   -9.11648
       H    16.47170   17.04583  -12.31577
       O    15.97742   17.86684  -12.01617
      H1    15.11012   17.56584  -11.65401
       H     5.93841   16.03603   -8.86538
       O     6.35525   16.23007   -9.73906
      H1     7.30182   16.00882   -9.70437
       H     7.87569   12.59187  -15.64166
       O     7.86963   13.56112  -15.58459
      H1     7.05725   13.94256  -16.02338
       H     5.21393   17.08733  -12.71780
       O     4.28034   17.23721  -12.73163
      H1     3.96721   17.15381  -11.79894
       H     8.91336   16.32152  -16.56581
       O     8.30537   16.18851  -17.37082
      H1     7.37328   16.00378  -17.05842
       H    15.55505   18.84181  -13.53568
       O    15.03426   19.05467  -14.35704
      H1    15.61611   19.36166  -15.09117
       H    16.17752   18.57515  -10.02727
       O    16.89162   18.85342   -9.38641
      H1    17.28469   18.00191   -9.00524
       H     6.25726   18.09076  -10.88565
       O     6.13771   19.03679  -11.07908
      H1     5.43276   19.03624  -11.75238
       H     5.78754   13.59082  -18.77690
       O     6.34627   12.99343  -19.26371
      H1     7.22105   13.00307  -18.84239
       H     7.89995   18.46493   -7.77631
       O     7.95257   17.70533   -7.19679
      H1     8.20452   16.93350   -7.71531
       H     9.12393   13.90986  -18.87218
       O     9.01882   13.25119  -18.17728
      H1     8.70712   13.65360  -17.38119
       H     5.95863   14.85938  -10.57019
       O     5.46108   14.12880  -11.03735
      H1     4.53061   14.28146  -10.94102
       H    12.92691   15.77801  -19.15902
       O    12.32369   16.45372  -19.37265
      H1    12.90733   17.16825  -19.70418
       H    13.85590   17.28500  -14.23241
       O    13.07373   16.84246  -13.87867
      H1    12.42913   16.55621  -14.56424
       H    15.03535   15.36180   -9.93828
       O    15.87946   14.82073   -9.85498
      H1    16.45831   15.30886   -9.23283
       H    13.41838   19.55168  -13.46393
       O    12.58807   19.30283  -13.05100
      H1    12.45724   18.38742  -13.24530
       H     3.00373   18.10192  -18.70853
       O     3.92627   17.99731  -18.50695
      H1     4.34386   18.88046  -18.69038
       H    11.15950   17.57831   -9.14246
       O    10.55400   17.73779   -9.86403
      H1    10.84387   18.54983  -10.24715
       H    12.21176   14.20722  -12.10830
       O    13.01177   14.79816  -12.08388
      H1    12.92512   15.55628  -12.71661
       H    15.01344   17.65199  -15.81448
       O    14.76875   17.12180  -16.62142
      H1    13.93796   17.47746  -17.00090
       H    10.82933   12.49109  -18.09707
       O    11.72838   12.04878  -18.14278
      H1    12.03153   11.97741  -17.23440

