117
frame 7 | Written by MDAnalysis XYZWriter (release 2.4.3)
       H    -5.27916   -2.36651  -11.54906
       O    -4.39467   -2.38612  -11.11419
      H1    -3.73701   -2.29371  -11.81765
       H    -4.43623   -2.60266   -7.82406
       O    -3.84031   -1.86982   -7.88658
      H1    -4.13781   -1.40307   -8.67113
       H    -7.64366   -0.77100   -8.22139
       O    -7.44769   -1.70557   -8.45491
      H1    -7.67665   -1.74735   -9.40564
       H    -7.25370  -12.01885  -11.18195
       O    -7.36533  -11.56977  -11.98026
      H1    -6.47983  -11.37690  -12.30140
       H   -10.88179  -10.73597  -13.32572
       O   -11.50299  -10.95496  -14.03362
      H1   -11.11487  -11.72788  -14.40751
       H   -11.93256   -4.61248  -11.62988
       O   -12.43789   -4.87009  -10.82805
      H1   -12.76168   -4.03726  -10.49025
       H   -10.77629   -7.39699   -5.34782
       O   -10.83043   -7.02658   -4.47083
      H1   -11.18609   -6.16283   -4.51558
       H    -8.34483   -5.87998  -10.93407
       O    -8.38851   -6.35984  -10.06472
      H1    -8.35871   -7.32017  -10.26367
       H    -9.14013   -6.11522   -4.40688
       O    -8.57177   -5.48700   -3.98775
      H1    -7.79486   -5.63770   -4.50861
       H    -7.94184   -9.43647  -15.89182
       O    -7.92820   -9.40352  -14.89570
      H1    -8.12479   -8.49444  -14.63428
       H   -13.03605   -8.44038   -9.83283
       O   -13.08287   -7.47068   -9.79677
      H1   -12.26334   -7.23167  -10.27170
       H    -8.49202   -6.46404   -8.31172
       O    -8.63274   -6.46410   -7.34769
      H1    -7.82929   -6.90442   -6.94231
       H    -4.90311  -10.13408  -12.84091
       O    -4.80776  -10.65222  -11.99607
      H1    -4.14223  -10.21141  -11.44596
       H   -11.54065   -8.66198  -11.09716
       O   -10.87853   -8.08632  -11.41061
      H1   -11.17164   -7.79486  -12.28271
       H    -7.29525   -2.75199  -13.27774
       O    -6.70624   -2.01767  -13.36810
      H1    -6.93448   -1.44122  -12.63020
       H    -9.01351  -10.74615  -12.06408
       O    -9.94977  -10.60441  -11.89801
      H1    -9.98838   -9.63991  -11.76562
       H    -7.45595   -9.56616  -11.06964
       O    -7.83704   -9.00345  -10.34856
      H1    -7.03221   -8.78378   -9.88273
       H   -11.45627   -3.64596  -13.25255
       O   -10.80715   -4.31689  -13.08634
      H1   -11.04616   -5.08048  -13.61515
       H   -12.34258   -5.20254   -8.68753
       O   -12.45938   -5.16631   -7.73053
      H1   -12.06151   -5.95178   -7.39223
       H    -9.87435  -10.95557   -6.48432
       O    -9.71277  -11.33278   -5.62845
      H1   -10.52439  -11.15081   -5.11527
       H   -11.12108   -8.74408   -7.57641
       O   -10.95246   -8.05266   -6.94262
      H1   -10.11106   -7.72790   -7.24872
       H    -6.37750   -7.13569   -4.29069
       O    -6.66354   -7.22914   -5.22654
      H1    -6.78666   -8.18192   -5.34059
       H    -6.05560   -9.48665  -14.64812
       O    -5.17555   -9.33743  -14.35054
      H1    -5.04255   -8.39296  -14.07141
       H    -5.18737   -6.92920   -9.23359
       O    -5.71408   -7.61262   -8.88804
      H1    -5.43279   -7.84758   -8.00470
       H    -9.86335   -1.39653   -4.89404
       O    -9.01894   -1.49168   -5.35234
      H1    -9.06110   -2.37877   -5.69195
       H   -12.25164   -7.47967  -13.66809
       O   -11.64832   -6.78388  -14.00911
      H1   -11.64241   -6.98924  -14.95970
       H   -12.22760   -2.22661   -8.57045
       O   -12.49575   -2.15981   -9.51719
      H1   -13.35688   -1.68005   -9.34677
       H    -4.88567   -4.82573  -10.52501
       O    -4.52635   -5.64520  -10.80510
      H1    -4.78566   -5.76826  -11.73809
       H    -9.17334   -4.50307   -7.07398
       O    -8.95693   -3.56201   -6.96331
      H1    -8.51180   -3.06810   -7.67376
       H    -4.58788   -7.99364   -6.06798
       O    -3.74385   -8.06492   -6.51402
      H1    -3.43605   -7.09831   -6.51928
       H    -3.70899   -6.34147  -13.52872
       O    -4.65448   -6.49051  -13.39542
      H1    -5.23333   -5.97800  -13.98577
       H    -9.13919   -4.10744  -12.51535
       O    -8.19338   -4.18179  -12.60583
      H1    -7.93874   -4.56400  -13.47437
       H   -11.80566  -10.49764   -9.66235
       O   -12.63657  -10.04768   -9.79477
      H1   -13.27687  -10.67214   -9.50176
       H    -6.62584   -4.45625  -15.19716
       O    -6.80999   -5.24001  -14.64214
      H1    -6.90870   -5.94429  -15.30408
       H    -2.79093   -8.11514   -9.96863
       O    -3.40952   -8.86884   -9.83186
      H1    -4.24922   -8.48189   -9.55133
       H    -9.07861   -9.91901   -9.24845
       O    -9.69168  -10.31762   -8.61035
      H1   -10.01159  -11.16262   -8.94326
       H    -7.58879  -12.88578   -8.58965
       O    -7.29266  -12.06343   -9.00021
      H1    -8.00632  -11.36549   -8.81984
       H   -12.19136   -3.44328   -6.80576
       O   -11.51554   -2.87334   -6.38543
      H1   -10.65314   -3.23723   -6.58232
       H    -4.94844   -4.47540   -6.95144
       O    -5.40411   -4.08876   -7.71046
      H1    -6.32572   -3.94050   -7.40615

