117
frame 7 | Written by MDAnalysis XYZWriter (release 2.4.3)
       H     6.38715   -5.74717  -13.33392
       O     7.06796   -6.14598  -12.74949
      H1     7.24211   -5.65549  -11.97129
       H     9.55941   -4.42895  -15.59991
       O     9.10230   -3.74014  -16.01615
      H1     8.44641   -3.46460  -15.33349
       H    13.74893   -1.19501  -15.93270
       O    14.00668   -0.30693  -15.74248
      H1    15.01332   -0.43831  -15.69321
       H     9.64421   -7.02634  -16.31557
       O     9.79354   -7.50743  -17.14489
      H1     9.43189   -6.99189  -17.87338
       H    13.15792   -5.94081  -19.30863
       O    13.58670   -6.41483  -18.56170
      H1    14.40357   -6.00328  -18.41016
       H    10.82924   -9.41084  -11.52848
       O    10.88495   -8.47792  -11.33913
      H1    11.14398   -8.14492  -12.21054
       H    13.36085    2.21963  -17.81284
       O    13.73954    1.96267  -16.96203
      H1    13.57873    0.99973  -16.84238
       H     3.54143   -3.87758  -18.80961
       O     4.20507   -4.50829  -18.56581
      H1     4.53090   -4.94830  -19.36531
       H     9.05567   -1.01056  -19.59230
       O     9.24832   -1.41124  -18.72244
      H1     9.39272   -2.34419  -18.95122
       H    10.79742   -0.73026  -17.64571
       O    11.47523   -0.29063  -17.13135
      H1    11.09349   -0.56543  -16.30231
       H    15.45974   -5.43210  -13.81887
       O    14.74581   -5.51662  -14.53773
      H1    13.86556   -5.79085  -14.07926
       H     4.80230   -5.86986  -16.94502
       O     5.51150   -6.04723  -16.33411
      H1     6.22123   -5.65679  -16.82527
       H    12.27693   -5.09331  -17.20153
       O    11.80774   -4.41374  -16.70551
      H1    12.51624   -4.05638  -16.12416
       H     9.31341  -10.11113  -14.01814
       O     9.77565   -9.75841  -14.82074
      H1     9.14156   -9.26274  -15.29218
       H    10.61041    1.33232  -16.65768
       O    10.10852    2.09014  -16.40294
      H1     9.64572    1.75096  -15.63490
       H    13.02590   -1.85251  -18.23181
       O    12.75660   -1.71535  -19.15700
      H1    11.80750   -1.75886  -19.11994
       H    14.39500   -3.35595  -15.45494
       O    13.99869   -3.07375  -16.26435
      H1    14.67337   -3.49932  -16.86126
       H    12.80508   -9.53129  -17.39284
       O    13.42592   -9.24508  -18.16458
      H1    13.19917   -8.32575  -18.19856
       H    11.65539   -1.99589  -11.78712
       O    11.77408   -2.94316  -12.07136
      H1    12.71056   -2.97136  -12.17253
       H     6.62400   -3.22540  -14.16933
       O     7.38841   -2.66864  -14.35857
      H1     6.99605   -1.92936  -14.78230
       H    13.83472  -12.19653  -19.92654
       O    14.34152  -11.66022  -19.24372
      H1    13.77328  -10.85561  -19.13677
       H    16.66233   -5.04932  -17.59706
       O    16.05433   -4.30002  -17.73351
      H1    16.53619   -3.51189  -17.56278
       H     6.91395    0.22449  -14.67104
       O     6.18623   -0.07213  -15.20692
      H1     5.85667    0.65218  -15.72541
       H     6.32195   -8.51039  -14.40106
       O     6.52127   -8.48623  -15.36752
      H1     6.14449   -7.62751  -15.70641
       H     4.79070   -8.44536  -17.97665
       O     5.14142   -8.43619  -18.90300
      H1     6.15167   -8.41537  -18.81625
       H     9.06155   -0.08637  -14.41943
       O     8.69806    0.74979  -14.25128
      H1     8.92710    1.00421  -13.31400
       H     7.19721   -8.93455  -17.19278
       O     7.75380   -9.04469  -18.00740
      H1     8.55701   -8.57631  -17.77777
       H    12.85760    1.00873  -20.18205
       O    12.20905    1.31423  -19.56093
      H1    12.24080    0.64421  -18.88157
       H    10.69654   -1.57489  -13.79026
       O    10.39106   -1.31203  -14.65908
      H1    10.10810   -2.20215  -15.02569
       H    13.00833   -7.35366  -13.07664
       O    12.35596   -7.88733  -13.63543
      H1    12.52233   -8.82645  -13.51295
       H     4.42462   -3.68741  -13.81686
       O     5.17730   -4.30292  -14.03298
      H1     4.91692   -4.83396  -14.81259
       H    10.18138   -6.54371  -13.92148
       O     9.46878   -6.17070  -14.51110
      H1     8.62325   -6.28150  -14.03456
       H     7.13070  -10.90635  -18.49121
       O     6.89311  -11.72935  -18.87296
      H1     5.94096  -11.84018  -18.83643
       H    14.21912   -6.32318  -11.68042
       O    13.34511   -5.99803  -12.07456
      H1    12.67379   -6.04376  -11.38754
       H    16.50408   -7.51978  -16.26096
       O    16.12223   -7.72254  -15.39138
      H1    15.61633   -6.93069  -15.11818
       H    11.55444  -10.12355  -15.48901
       O    12.36744  -10.53196  -15.93118
      H1    12.10967  -11.50817  -16.17357
       H    10.21672   -4.84270  -19.37675
       O    10.68533   -4.03677  -19.07042
      H1    11.15053   -4.19344  -18.23947
       H     8.13395   -4.42477  -17.31900
       O     7.55559   -4.94162  -17.89089
      H1     7.05183   -4.27153  -18.42582
       H     3.80614   -1.52038  -16.72448
       O     3.84704   -1.34675  -17.65499
      H1     4.02006   -0.39781  -17.82479

