117
frame 11 | Written by MDAnalysis XYZWriter (release 2.4.3)
       H   -10.25246    6.27504   12.80253
       O   -10.45803    5.77842   13.60175
      H1   -11.19919    5.25156   13.35239
       H   -13.51961   10.63280   11.70597
       O   -14.24877   10.25902   12.20138
      H1   -15.07657   10.65691   11.94005
       H   -10.08190   14.51179   15.84172
       O    -9.50935   13.77773   16.07062
      H1   -10.08473   13.33340   16.66992
       H    -8.81007   11.00078   13.52522
       O    -9.45348   11.70599   13.54938
      H1    -8.87079   12.53117   13.46694
       H   -11.75211   13.70542   14.10461
       O   -11.90955   12.79234   13.96264
      H1   -11.14280   12.42950   13.61072
       H   -12.13064   14.68460   18.66034
       O   -11.27533   14.24255   18.56825
      H1   -10.66673   14.97366   18.74839
       H   -13.60049   11.97797   16.74658
       O   -13.85955   12.47171   15.93348
      H1   -13.03687   12.52024   15.38547
       H    -8.55353    5.55523   18.63337
       O    -9.21168    5.11157   19.12823
      H1    -9.52225    5.71667   19.82813
       H    -9.54564   17.15731   18.18237
       O    -9.10805   16.52066   18.73724
      H1    -8.62290   15.95086   18.08229
       H    -9.35369    7.11058   10.95306
       O    -9.73715    7.49215   11.73237
      H1    -9.24647    8.31782   11.86730
       H    -8.80779   14.94250   12.62675
       O    -8.22308   14.16728   12.77572
      H1    -7.68651   14.26046   11.92586
       H   -11.48036    7.43580   17.12435
       O   -12.16785    7.71168   17.72637
      H1   -12.11334    7.09169   18.46276
       H   -16.06241    7.85466   17.82213
       O   -15.82052    8.68644   18.24871
      H1   -15.81930    9.37643   17.51885
       H   -13.17047    7.55563   15.53490
       O   -13.16464    7.30095   14.59040
      H1   -13.10396    6.35554   14.57740
       H   -14.50505   10.48453   15.17065
       O   -14.93619    9.61472   15.30788
      H1   -14.39708    9.06178   14.70319
       H    -7.39089   10.47444   16.83486
       O    -7.62793    9.70265   17.29415
      H1    -7.47415    9.85786   18.18600
       H    -5.81964   11.98330   12.79011
       O    -6.28252   11.58864   12.02631
      H1    -5.57446   11.41539   11.39599
       H   -10.96305   15.93165   14.13961
       O   -11.66114   15.50426   14.62378
      H1   -11.78748   16.05593   15.43008
       H   -12.43208   13.69270   12.33393
       O   -12.53759   14.35815   11.59708
      H1   -12.34803   13.96273   10.75344
       H   -13.63955    4.31150   15.85144
       O   -12.71751    4.44548   15.50003
      H1   -12.16713    4.58288   16.23732
       H   -12.99360    9.83474   17.93514
       O   -12.62325   10.70956   17.80264
      H1   -11.85007   10.47662   17.18427
       H   -10.32318    8.33971   15.74578
       O   -10.07802    7.43660   15.89951
      H1   -10.26566    6.95781   15.11024
       H    -7.35155    7.02661   14.77656
       O    -6.98712    7.06512   13.85307
      H1    -6.00807    7.05065   13.94175
       H   -10.18018   10.95977   15.58615
       O   -10.41094   10.29145   16.22095
      H1    -9.65065   10.32262   16.82920
       H    -8.37793   14.49892   16.90907
       O    -7.62715   14.84331   17.46989
      H1    -7.43675   15.60416   16.89184
       H    -7.30586    8.67442   12.72081
       O    -7.92601    9.42684   12.68096
      H1    -7.50724   10.18490   12.25757
       H    -3.77931   11.05389   14.62067
       O    -2.93312   10.69648   14.98661
      H1    -2.43508   11.51693   15.11515
       H    -8.86373    3.66703   14.92943
       O    -8.08326    3.71626   15.53860
      H1    -8.04444    4.68086   15.70376
       H    -2.71871   11.14121   18.25409
       O    -3.52368   11.31146   17.81065
      H1    -3.30573   11.10465   16.91185
       H   -12.98701    8.06440   11.27103
       O   -12.12600    8.43855   10.96296
      H1   -11.34318    8.05761   11.40413
       H    -4.95488   13.44224   14.18977
       O    -5.00317   12.50140   14.40159
      H1    -5.32069   12.49863   15.33146
       H   -11.31789    3.23942   17.83414
       O   -11.55012    4.14615   18.08195
      H1   -10.71720    4.45945   18.43230
       H   -10.96898   12.45158   19.20146
       O   -10.29104   11.96688   19.71959
      H1   -10.45222   11.05600   19.61424
       H    -8.89222   13.28172   10.68831
       O    -9.71382   13.16430   10.16333
      H1   -10.16850   12.54277   10.80112
       H    -5.93634   12.06430   17.56001
       O    -6.62139   12.11734   16.86827
      H1    -7.13936   12.91177   17.08506
       H    -7.24433    6.71869   17.20088
       O    -7.79419    6.36105   16.44999
      H1    -8.59092    6.90015   16.34136
       H    -5.83810    8.56977   16.10054
       O    -5.06784    8.04774   15.86805
      H1    -4.32195    8.34365   16.46010
       H    -5.38179    7.33924   17.40030
       O    -5.67500    7.11062   18.28476
      H1    -5.25559    7.64237   18.94220
       H    -5.98190   14.30377   18.61972
       O    -5.42906   13.72759   19.13876
      H1    -6.14839   13.13977   19.50373

