117
frame 8 | Written by MDAnalysis XYZWriter (release 2.4.3)
       H   -14.44420   15.02578    3.69250
       O   -14.03667   14.93784    4.55747
      H1   -14.41645   15.63772    5.15503
       H   -12.02441   10.63675    3.64991
       O   -12.67313   11.11823    4.19485
      H1   -13.17363   11.70859    3.55867
       H   -16.28317   14.09055    2.69707
       O   -16.48071   13.27773    3.19352
      H1   -15.65329   12.87651    3.15313
       H   -13.22645   17.85797   -0.73354
       O   -13.31051   18.75119   -0.35140
      H1   -12.51394   19.27148   -0.50473
       H   -18.27054   11.36103    6.14994
       O   -18.06949   10.99036    7.05561
      H1   -17.96274   11.69762    7.71844
       H   -18.03917   18.77554    5.57694
       O   -18.15858   19.73598    5.71132
      H1   -18.16121   19.74685    6.68306
       H   -18.23407   15.42761    2.86795
       O   -19.08669   15.85911    2.88683
      H1   -19.67436   15.17455    3.28365
       H   -16.02560    9.60621    8.86649
       O   -16.49240    9.16697    8.15513
      H1   -17.09716    9.75652    7.60599
       H   -12.88183   16.61006   10.06470
       O   -13.63636   17.21737    9.96286
      H1   -13.73218   17.59949   10.87364
       H   -13.33374   18.46704    3.26585
       O   -13.99048   18.63305    3.97424
      H1   -14.21228   17.86055    4.47814
       H   -17.07846   16.74067    8.96102
       O   -17.73701   17.41168    9.00188
      H1   -18.60068   17.02235    8.66979
       H   -17.87143   18.25860    1.72384
       O   -16.93884   18.50766    2.05025
      H1   -17.11615   19.31970    2.49752
       H   -12.28920   17.87371    1.37988
       O   -11.86839   18.25862    2.18111
      H1   -11.25243   17.57419    2.57254
       H   -19.21934   16.86904    1.21796
       O   -18.86185   17.59504    0.68644
      H1   -19.61330   18.08286    0.29279
       H   -17.03946   17.37325    4.48947
       O   -17.75335   17.21508    5.09360
      H1   -18.37278   16.79178    4.50885
       H   -15.23503   15.33227   -1.22670
       O   -15.51414   15.31773   -0.33441
      H1   -16.41084   15.53067   -0.38546
       H   -16.17725   18.28164   -0.38458
       O   -16.09226   18.72800   -1.19635
      H1   -15.19764   18.96217   -1.29978
       H   -13.02485   13.22033    2.22005
       O   -13.86737   12.73373    2.29162
      H1   -14.03912   12.48438    1.33903
       H   -14.33459   17.40104    6.69160
       O   -14.87350   17.04615    6.00204
      H1   -15.77817   17.28733    6.26453
       H   -19.95538    9.89439    2.26483
       O   -19.87987    9.79903    3.21180
      H1   -19.18646    9.11473    3.36640
       H    -9.57292   15.98039    3.43746
       O    -9.89813   16.88687    3.48001
      H1   -10.41528   16.80433    4.28954
       H   -11.92751   14.19819    9.04370
       O   -11.31145   14.37432    9.75079
      H1   -10.63836   13.65066    9.54529
       H   -16.07465   16.98058    2.18306
       O   -15.96354   15.99595    2.25010
      H1   -15.67587   15.73864    1.34624
       H   -17.98944   12.30129    4.08120
       O   -18.62492   11.90690    4.67187
      H1   -18.89344   11.11082    4.14363
       H   -10.09984   13.75112    4.56738
       O    -9.80296   14.12342    3.69266
      H1   -10.66692   13.97307    3.24574
       H   -18.05311   14.10438   -1.84894
       O   -18.18261   13.17025   -2.00193
      H1   -18.12683   13.00916   -3.03414
       H   -11.80346   12.58531    5.54569
       O   -11.07913   13.07720    5.86472
      H1   -10.42029   12.43459    6.15411
       H   -18.58693   13.30381    9.21604
       O   -17.86019   13.22171    8.56132
      H1   -18.15187   13.78044    7.81437
       H   -12.96624   17.48989    8.35074
       O   -12.91962   17.91520    7.48830
      H1   -12.38152   17.29313    6.96084
       H   -15.49496   14.04150   11.72799
       O   -16.30456   13.49170   11.43460
      H1   -16.38860   13.71894   10.49788
       H   -14.65324   13.48673    5.59473
       O   -15.22629   12.93415    6.17097
      H1   -15.03095   11.99409    6.02295
       H   -14.81062    9.02415    5.53231
       O   -14.52145    9.92192    5.72453
      H1   -13.86968   10.17898    5.03286
       H   -15.26797   15.84313    8.40586
       O   -15.69413   15.62635    9.25723
      H1   -15.17019   16.06276    9.95069
       H   -10.81387   15.86242    6.25265
       O   -11.45924   16.26845    5.71618
      H1   -11.85518   15.46010    5.28284
       H   -18.14470   15.31662    6.08829
       O   -18.77772   14.75695    6.54497
      H1   -19.24475   15.37884    7.07308
       H   -17.58556   17.58930   10.72535
       O   -17.07875   17.42559   11.57071
      H1   -16.78793   18.31621   11.86934
       H   -17.76740   16.35236   -2.16786
       O   -18.19691   15.86125   -1.42228
      H1   -18.39421   16.56993   -0.79991
       H   -11.37511   13.68417    0.49334
       O   -11.33644   14.52324    1.03833
      H1   -10.47094   14.84235    1.12097
       H   -14.48594   14.02850    8.88197
       O   -13.74404   13.57602    8.51039
      H1   -14.09740   13.22735    7.67173

