117
frame 8 | Written by MDAnalysis XYZWriter (release 2.4.3)
       H    18.16016  -10.51770   13.29210
       O    18.45474  -11.31650   12.77613
      H1    18.72641  -11.93114   13.50357
       H    14.97069  -11.33827   12.63360
       O    14.51043  -12.13164   12.73328
      H1    13.85108  -11.89354   13.45484
       H    12.22684  -15.38515   11.74960
       O    11.97075  -15.16718   10.85744
      H1    11.20486  -15.73825   10.62147
       H     8.66037  -13.44637   13.08006
       O     9.07250  -14.28459   13.37389
      H1     8.65038  -14.56485   14.21766
       H    13.61962  -18.72712   10.73505
       O    13.72153  -19.22101   11.57219
      H1    13.51849  -20.12511   11.42648
       H    12.10880  -14.33009   14.20043
       O    11.37054  -13.73760   14.48240
      H1    10.53880  -14.04851   14.11407
       H    19.08675  -12.79714    8.13589
       O    18.35255  -13.33141    8.39448
      H1    18.75251  -14.06323    8.88159
       H    10.65004  -11.97564   13.96469
       O    10.84493  -11.05567   14.05831
      H1    10.71983  -10.63113   13.18571
       H    15.49019  -13.70594    5.35857
       O    15.83348  -13.72660    4.47558
      H1    16.50826  -13.01570    4.36024
       H    11.62845   -9.11306    5.81393
       O    11.92997   -9.94033    6.18436
      H1    12.71579   -9.59805    6.63268
       H    16.24209  -16.72626   13.57504
       O    16.60196  -16.76889   12.69334
      H1    17.58072  -16.78422   12.80610
       H    17.82097  -11.80300   11.00972
       O    17.40796  -11.59276   10.21285
      H1    17.82641  -12.21876    9.61544
       H    10.02987  -16.10800   13.51391
       O    10.60583  -16.82057   13.54803
      H1    10.33000  -17.57140   13.02148
       H    12.49098  -11.61202   15.31595
       O    13.40381  -11.40459   15.45873
      H1    13.44869  -10.54000   15.89032
       H    15.77372  -11.55789    9.28723
       O    15.02919  -11.55424    8.66255
      H1    14.41705  -12.15467    9.06445
       H    19.80383  -14.66620   12.15369
       O    19.66162  -14.71656   13.09498
      H1    18.82235  -14.23471   13.24356
       H    14.22130   -8.15479    7.78636
       O    14.15631   -9.04965    7.41561
      H1    14.03491   -9.73436    8.09025
       H    16.89528  -13.38590   15.19504
       O    17.22065  -13.73347   14.32787
      H1    16.55295  -13.37628   13.70543
       H    11.78563  -10.95421   10.46968
       O    11.73929  -10.39805   11.25716
      H1    12.63104  -10.08589   11.56189
       H     9.79478  -16.53052    9.01749
       O     9.84359  -16.72552    9.99476
      H1     9.10192  -16.22653   10.33416
       H    10.43386   -9.13753   10.88750
       O     9.76063   -8.47122   10.71654
      H1    10.16994   -7.75752   10.20623
       H    16.58848  -18.45945   12.19952
       O    16.41579  -19.32080   11.75296
      H1    15.46747  -19.43198   11.65185
       H    15.07181  -13.02693    7.36811
       O    14.77781  -13.85632    6.97455
      H1    15.04152  -14.59258    7.60055
       H    13.96465  -15.64600   13.87830
       O    13.43813  -15.05492   13.30340
      H1    13.99459  -14.18589   13.06346
       H    16.62879  -18.48624    8.66498
       O    17.08687  -19.29480    9.02064
      H1    16.81509  -19.33311    9.94513
       H    11.97393  -14.39266    8.89834
       O    11.82200  -14.12139    8.01095
      H1    12.69787  -14.03592    7.61201
       H    13.99712   -8.64503   12.58774
       O    14.07187   -9.19854   11.82197
      H1    14.96063   -9.07387   11.53791
       H    12.95500  -16.61192   10.06374
       O    13.58850  -17.17999    9.62631
      H1    13.15906  -17.87970    9.04953
       H    13.10095  -14.01020   10.56381
       O    13.78529  -13.29581   10.41125
      H1    14.00451  -12.93544   11.25489
       H    15.85332  -13.76213   11.41448
       O    16.61913  -14.28569   11.63437
      H1    16.30920  -14.98189   12.21086
       H    18.88362  -16.04527   10.05359
       O    18.85326  -15.10629   10.24170
      H1    18.01439  -14.94044   10.66325
       H    15.66622  -15.95050   15.85612
       O    15.29866  -16.28733   15.05183
      H1    15.08158  -17.20494   15.20909
       H    17.03383  -16.44084    7.75794
       O    17.89075  -16.86439    7.67473
      H1    17.76479  -17.76998    7.39219
       H    17.52958   -8.43622   14.02084
       O    16.95019   -9.19460   14.17733
      H1    16.05988   -8.84665   14.01408
       H    16.53179  -15.25902    9.41782
       O    15.73352  -15.46311    8.99801
      H1    15.21574  -16.10234    9.46749
       H     8.62818  -16.70756    7.43443
       O     9.53547  -16.76127    7.23862
      H1     9.76041  -15.83009    6.99064
       H    17.06699   -9.72239   10.45788
       O    16.68014   -8.90203   10.76883
      H1    16.34560   -8.43327    9.99470
       H    11.51100  -12.31386    8.44515
       O    11.29065  -11.40500    8.48906
      H1    11.39117  -10.94489    7.66770
       H     9.30718   -9.44962    9.30762
       O     9.00093   -9.94586    8.53757
      H1     9.63376  -10.65788    8.41513

