117
frame 9 | Written by MDAnalysis XYZWriter (release 2.4.3)
       H    14.94949  -13.65585    3.54799
       O    14.30001  -13.20787    2.96209
      H1    13.52222  -13.82373    2.83814
       H    15.36379  -12.92404   11.84898
       O    15.17989  -13.38067   12.63902
      H1    15.57596  -12.81132   13.36457
       H    12.97863  -16.02281   12.35283
       O    12.79751  -16.11741   11.40828
      H1    11.95642  -16.58776   11.26571
       H    19.47378  -17.48769   -2.68268
       O    19.16538  -16.92822   -3.40909
      H1    18.20247  -17.06509   -3.50455
       H    17.16201  -15.63167    0.01309
       O    17.00949  -14.74015   -0.32543
      H1    16.39904  -14.88907   -1.09813
       H    11.77463  -13.86801    1.56590
       O    11.73485  -14.32107    2.42566
      H1    11.89507  -15.24082    2.11757
       H    18.49599  -13.79258   -0.30652
       O    19.13329  -13.03375   -0.31778
      H1    19.06429  -12.62299    0.58168
       H    15.78577  -12.74371    2.09337
       O    16.60780  -12.63513    1.62501
      H1    16.57366  -13.17820    0.81407
       H    18.17352  -12.43176    3.59293
       O    17.90796  -11.94439    4.43187
      H1    17.49079  -11.11930    4.13344
       H    18.82152  -12.23923    8.30186
       O    18.15151  -12.88869    8.44695
      H1    18.54042  -13.79792    8.26103
       H    15.36802  -14.12126    5.18460
       O    16.16942  -14.09175    4.58186
      H1    16.62923  -13.27409    4.89103
       H    16.90129  -17.13173   14.31960
       O    16.95446  -17.62179   13.49188
      H1    17.87457  -17.44764   13.24343
       H    17.50593  -11.70774   11.24422
       O    16.65313  -11.82613   10.75852
      H1    16.96811  -12.20971    9.89528
       H    15.57719  -13.63287    8.88743
       O    14.96826  -13.03515    8.46648
      H1    14.18603  -13.06283    9.01060
       H    19.11512  -14.38125   10.60316
       O    19.79584  -14.51951   11.24735
      H1    19.43043  -14.15211   12.05191
       H    15.09795  -19.30058   -1.72952
       O    15.20847  -18.34633   -1.72619
      H1    15.79617  -18.20661   -0.96106
       H    13.85911   -9.85468    8.80530
       O    13.59033  -10.43918    8.09714
      H1    14.14268  -11.24329    8.21105
       H    19.09343  -12.76348   14.57120
       O    18.98095  -13.42152   13.87951
      H1    18.23089  -14.01636   13.94762
       H    14.18223  -13.69382    7.01541
       O    14.08625  -14.38153    6.36877
      H1    14.82510  -14.96800    6.58001
       H    12.75987  -15.92068    8.65093
       O    12.07974  -15.47380    8.08884
      H1    12.60607  -15.13117    7.31783
       H    11.54889  -19.46903    8.00208
       O    12.44576  -19.15336    7.93898
      H1    13.01486  -19.82423    8.27388
       H    17.35352  -17.36923    4.71690
       O    17.10080  -16.69078    4.12730
      H1    16.94438  -15.90768    4.59934
       H    18.47883  -18.77535    9.65493
       O    19.12153  -18.08916    9.58006
      H1    19.26882  -17.84803   10.51719
       H    13.59266  -17.20923   10.38962
       O    13.95354  -17.97035    9.80885
      H1    13.40981  -18.03003    9.00226
       H    12.41333  -14.08203    9.42853
       O    12.86339  -13.51584   10.04107
      H1    13.01763  -14.11938   10.72927
       H    18.95021  -18.89276    5.82761
       O    18.10466  -18.82463    5.30367
      H1    18.33163  -19.40620    4.52190
       H    16.14126  -14.72917   12.32231
       O    16.79617  -15.42018   12.06606
      H1    16.52034  -16.22133   12.61590
       H    13.97007  -18.27414    4.92752
       O    14.35016  -18.52514    5.82292
      H1    13.57456  -18.52962    6.36949
       H    17.85384  -17.87922    0.99464
       O    17.03737  -17.53679    0.57879
      H1    16.40116  -17.48190    1.32998
       H    18.88659  -16.31415    8.76868
       O    18.35274  -15.55544    8.36990
      H1    17.49447  -15.58499    8.81879
       H    16.56650  -16.54500    6.79353
       O    15.60681  -16.52351    7.06562
      H1    15.22808  -17.14786    6.45267
       H     9.95952  -18.94255    5.36006
       O     9.43193  -18.14547    5.30127
      H1     9.13884  -17.84904    6.16862
       H    14.24955  -17.37054    2.38429
       O    15.01100  -17.84566    2.73187
      H1    15.79841  -17.28697    3.04264
       H    12.82240  -16.77497    0.56730
       O    12.91792  -16.73856    1.51905
      H1    12.17060  -17.25016    1.94383
       H    16.41575  -10.36892    7.34023
       O    16.70154   -9.49531    7.11476
      H1    17.53517   -9.27754    7.50688
       H    15.71252  -15.91521   10.46396
       O    15.79474  -15.63212    9.58269
      H1    15.42066  -16.29237    9.00567
       H    10.05170  -18.18594    1.95569
       O    10.72310  -18.11460    2.60017
      H1    10.15132  -18.01731    3.43171
       H    15.91346  -17.40264   -4.51708
       O    16.40200  -17.18023   -3.72874
      H1    16.07154  -17.68806   -2.97843
       H     9.01954  -16.33509    7.47026
       O     9.59371  -17.02822    7.82814
      H1    10.48461  -16.76740    7.56654

