117
frame 11 | Written by MDAnalysis XYZWriter (release 2.4.3)
       H     9.45645   17.87145   13.70117
       O    10.02924   17.59568   13.01476
      H1    10.91035   17.50278   13.37617
       H     8.90259   16.19275    3.17157
       O     8.64604   16.67722    4.00182
      H1     7.67608   16.62328    4.04831
       H     7.60217   17.99496   15.37200
       O     8.10603   18.68163   14.93788
      H1     7.38306   19.22598   14.71103
       H     4.83298   14.45786   14.07100
       O     5.31138   13.65129   13.72724
      H1     4.95399   13.53336   12.80863
       H     7.09692   16.46831    7.34615
       O     7.26009   15.45890    7.45039
      H1     6.60034   15.13436    6.77129
       H     3.77054   18.50280   12.36863
       O     3.13067   18.92004   12.93003
      H1     3.51999   18.97534   13.81472
       H     2.12307   17.72380    5.08580
       O     1.63201   17.99197    5.94310
      H1     2.15508   18.77306    6.20462
       H     5.35213   18.88093   10.03795
       O     5.44954   19.65375    9.40125
      H1     6.19618   20.16650    9.82884
       H     5.75512   17.24302   11.43027
       O     4.97392   17.70197   11.13400
      H1     4.28705   17.10313   10.75268
       H     7.64199   16.35261   12.39412
       O     7.45375   16.59257   11.49727
      H1     7.11754   15.80246   11.01719
       H     6.91333   14.42724   14.18597
       O     7.69468   14.85581   14.58854
      H1     8.11704   14.07172   14.94768
       H    10.19162   19.04905   10.69584
       O    10.29355   19.81538   11.24717
      H1    10.18769   19.47663   12.14245
       H     2.05160   15.30946    6.97890
       O     2.94310   15.62295    7.19474
      H1     2.85410   16.52695    7.01023
       H     9.30292   16.28870   10.96834
       O    10.05114   16.06804   10.31112
      H1    10.84142   16.48992   10.74150
       H     9.81740   17.43915    9.14372
       O     9.85159   18.22934    8.63012
      H1     8.86458   18.45953    8.48419
       H     0.32528   14.48203    5.46804
       O     0.59349   14.27835    6.38604
      H1     1.01275   13.38898    6.44273
       H     6.44884   18.95589    7.93213
       O     7.07759   18.33456    7.50253
      H1     7.29297   18.78339    6.66653
       H     5.23545   13.41884   10.51863
       O     4.85533   12.67760   11.03595
      H1     3.97483   12.54611   10.58507
       H    -1.68092   16.25738   11.54295
       O    -1.36284   15.75088   10.77895
      H1    -1.41840   16.43525   10.01512
       H     1.42798   19.02878   13.31511
       O     0.54075   18.79110   13.61720
      H1     0.48612   17.85667   13.39165
       H     0.22745   15.60542   14.25965
       O     1.03371   15.93215   13.86129
      H1     0.96752   15.45548   13.00095
       H     9.16486   15.05189    6.65484
       O     9.59506   14.98512    5.80932
      H1     9.04709   15.61610    5.26106
       H    11.35919   19.93354    8.38576
       O    12.30389   19.98348    8.18689
      H1    12.72918   19.15071    8.37155
       H     0.09541   14.72313   11.07208
       O     0.94881   14.35734   11.27426
      H1     0.65642   13.56431   11.85875
       H     0.98758   18.12346   15.13455
       O     1.24786   17.81042   16.03441
      H1     0.94249   16.89500   16.15868
       H    -3.00429   18.65148   11.16842
       O    -2.07208   18.70617   11.40603
      H1    -1.92837   19.66604   11.57274
       H     5.07231   16.98378    4.09816
       O     5.87264   16.39651    4.05230
      H1     5.77995   15.74602    4.78006
       H     2.42204   15.50388   10.39362
       O     3.10631   15.97886    9.93637
      H1     2.99643   15.83840    8.98237
       H     6.49401   12.13507   10.56604
       O     7.33496   11.67564   10.34156
      H1     7.86693   11.63962   11.14135
       H    11.05160   17.46779    7.29719
       O    11.53319   16.83049    6.78633
      H1    10.85831   16.14923    6.53286
       H     2.19140   17.06506    2.97549
       O     2.62170   16.51837    3.67881
      H1     2.00154   15.77428    3.72647
       H     7.15261   16.11337   15.88134
       O     7.30354   16.76421   16.56687
      H1     6.44520   16.95771   16.96430
       H     6.17789   15.00114    8.94952
       O     5.73498   14.86554    9.79916
      H1     4.83020   15.25837    9.71541
       H     4.84647   13.66457    5.55380
       O     5.27803   14.47030    5.98260
      H1     4.47794   14.84034    6.41709
       H    10.72569   14.56783   10.76420
       O    11.18942   13.80999   11.09539
      H1    10.43706   13.27688   11.39725
       H    13.36788   16.51907   12.01360
       O    12.57285   16.96319   11.59457
      H1    12.96950   17.29876   10.75461
       H     4.14873   16.84989   15.44713
       O     3.67026   16.10870   15.18590
      H1     2.80935   16.49088   15.17731
       H     1.79078   13.08881   10.21658
       O     2.27684   12.42045    9.69451
      H1     1.86367   11.53806    9.89356
       H     9.85364   15.22827   14.63879
       O    10.69487   15.06473   15.15511
      H1    11.20752   15.84261   15.05009

