117
frame 10 | Written by MDAnalysis XYZWriter (release 2.4.3)
       H     8.17741   -0.65714   -0.08458
       O     8.52911   -1.16947   -0.83509
      H1     9.47785   -1.35896   -0.57230
       H     6.51107   -0.85786    3.15736
       O     6.56998   -1.82583    3.21731
      H1     6.97452   -2.05772    2.33303
       H     5.59117   -8.61904    1.94003
       O     6.08272   -7.87633    1.54173
      H1     5.60576   -7.81480    0.70953
       H     1.87179   -9.00197    0.44579
       O     2.28230   -9.08656   -0.42633
      H1     3.07691   -8.53304   -0.35983
       H     5.12850   -0.04297   -2.29516
       O     4.71608   -0.91840   -2.50336
      H1     5.43316   -1.60863   -2.59821
       H    -0.66236   -1.95800   -3.39084
       O    -0.69356   -1.97694   -2.41810
      H1    -0.01059   -1.47058   -1.94379
       H     4.52405   -8.43790    3.96303
       O     4.27660   -7.83008    4.61254
      H1     5.00123   -7.16287    4.53181
       H     7.72728   -2.56557    0.21766
       O     7.13270   -3.06553    0.79306
      H1     6.27800   -2.83885    0.49017
       H     1.54030   -4.79537   -5.26717
       O     2.20228   -4.05214   -5.28962
      H1     2.18887   -3.81638   -4.32775
       H     2.75683   -5.30442    3.02990
       O     2.63965   -6.23578    2.84300
      H1     3.23891   -6.83365    3.37858
       H    -0.00145   -5.21864    1.29496
       O     0.32986   -4.53409    0.65014
      H1     1.24757   -4.37741    0.89304
       H     1.51246    0.82921    0.02469
       O     2.01792    1.67485   -0.00022
      H1     1.66904    2.24625   -0.68820
       H     6.75676   -6.01873    0.53516
       O     7.00921   -5.55254   -0.30127
      H1     7.18254   -4.69430    0.07904
       H     5.59978   -1.30714    5.95140
       O     5.03910   -0.58420    5.51578
      H1     5.05537    0.14833    6.10886
       H    -0.33118   -2.44791    2.89984
       O     0.39594   -2.86730    3.49916
      H1     0.87426   -2.08059    3.72520
       H     1.03671   -3.15061   -2.63024
       O     1.94344   -3.40775   -2.82934
      H1     2.28965   -3.98389   -2.15015
       H     4.18791   -5.05489   -2.84044
       O     3.61876   -5.40765   -2.14561
      H1     3.10115   -6.06995   -2.59887
       H     5.19818   -5.22579    3.41725
       O     5.93401   -5.91720    3.44573
      H1     5.73928   -6.57886    2.75767
       H     9.10474   -3.14674    4.15810
       O     9.03028   -2.29306    3.63182
      H1     8.10894   -2.04301    3.77539
       H     3.51312   -2.90716    1.47440
       O     3.02060   -3.27167    2.21808
      H1     3.63424   -3.33731    3.00781
       H     3.02010   -0.42648   -3.36068
       O     2.43056   -0.04042   -4.03355
      H1     1.88384   -0.79426   -4.41276
       H     6.64592    0.81939   -2.23351
       O     5.91494    1.25427   -1.81744
      H1     5.87957    1.04265   -0.86910
       H     3.42821   -0.75819    4.24055
       O     2.63117   -0.68479    3.71332
      H1     2.65059   -1.46406    3.09024
       H     0.63537   -6.27659   -0.83338
       O     0.38895   -7.13959   -1.09338
      H1     1.04743   -7.75899   -0.92648
       H     7.74830    0.97556    2.79659
       O     6.82164    0.98604    2.98951
      H1     6.69370    1.64221    3.67746
       H     1.16503   -0.70398    6.56082
       O     0.31941   -0.74300    6.12900
      H1     0.19281    0.09660    5.72291
       H     6.33792   -4.18770   -1.83733
       O     6.36876   -3.29087   -2.24780
      H1     6.79819   -3.42086   -3.10463
       H     4.76058   -3.64063    5.10519
       O     4.72516   -3.66944    4.15610
      H1     5.44420   -3.12407    3.78472
       H    -0.84049   -3.95270    4.54018
       O    -1.36982   -4.72956    4.70445
      H1    -2.19036   -4.42989    5.04901
       H    -1.09367   -4.76647   -1.07125
       O    -2.02189   -4.69867   -1.41806
      H1    -2.05319   -3.81126   -1.81444
       H     5.09140   -8.33732   -1.49274
       O     4.62165   -7.71283   -0.91199
      H1     4.44982   -6.92651   -1.48715
       H     4.25162   -1.18036    0.63201
       O     4.32158   -2.10090    0.34993
      H1     4.48750   -2.02673   -0.57404
       H    -2.10252   -2.68068    0.78567
       O    -1.21684   -2.42446    1.07506
      H1    -0.73589   -3.27785    1.19590
       H    -0.73428   -0.20226    1.74866
       O    -1.42639    0.29749    2.29336
      H1    -1.15854    0.44717    3.20923
       H     6.31418   -2.98684    7.31460
       O     6.60319   -2.90357    6.41349
      H1     7.20923   -3.65980    6.22517
       H     2.27789    2.87216    3.13940
       O     2.28736    2.29901    3.90110
      H1     2.76277    1.46166    3.64298
       H     5.10241    1.11665    1.60288
       O     4.80441    0.93824    0.72866
      H1     3.94138    1.41786    0.66010
       H    -0.43799   -5.76160    3.35943
       O    -0.25211   -6.32371    2.58090
      H1     0.70175   -6.43346    2.53813
       H    -0.45447   -1.12460    0.26525
       O     0.07856   -0.46021   -0.19574
      H1    -0.54025    0.11453   -0.58759

