117
frame 0 | Written by MDAnalysis XYZWriter (release 2.4.3)
       H     6.39730  -10.41332   12.04477
       O     6.75261  -10.00145   11.21203
      H1     7.33371   -9.32780   11.60879
       H    -0.31867  -12.12682   12.62242
       O    -0.15941  -12.40563   11.74005
      H1    -0.92630  -12.08253   11.13849
       H     4.88715  -14.62605   19.60188
       O     5.71228  -14.91483   19.13918
      H1     5.54942  -14.71218   18.19460
       H    -0.00035   -6.95881   14.16241
       O     0.49545   -6.20510   14.45421
      H1     1.38225   -6.50494   14.13010
       H     4.55237  -14.18654   11.23734
       O     5.31617  -14.73835   11.49866
      H1     5.75434  -14.80846   10.61961
       H    -2.91489  -12.05982   18.52964
       O    -3.66344  -11.57345   18.89809
      H1    -3.90347  -11.07892   18.09181
       H    -1.89937  -15.49427   18.09965
       O    -2.84656  -15.79195   18.00452
      H1    -2.76859  -16.32803   17.11036
       H    -0.94826  -13.90687   19.31618
       O    -1.27618  -13.01805   19.33074
      H1    -0.88046  -12.71208   18.47121
       H    -3.09450  -11.79048   12.31479
       O    -3.03539  -12.44174   13.09407
      H1    -3.57157  -13.22682   12.87570
       H    -3.76615  -13.19975   15.81342
       O    -3.62166  -12.21804   15.77834
      H1    -3.50320  -11.97543   14.84194
       H    -4.12282   -9.00895   16.22878
       O    -3.86839   -9.17169   17.14931
      H1    -3.13397   -8.57193   17.24306
       H    -0.93804  -10.72617   17.11617
       O    -1.05939  -11.65364   16.84890
      H1    -1.95255  -11.80792   16.44831
       H     6.88289  -12.15393   18.55172
       O     7.00657  -11.79279   17.68918
      H1     7.93109  -11.95772   17.56754
       H    -1.03040   -8.85662   13.00204
       O    -1.06520   -9.01416   13.94470
      H1    -0.47137   -9.78754   14.04487
       H     3.23439  -10.40715   14.63121
       O     3.56885   -9.91467   13.89298
      H1     3.22042  -10.33226   13.09425
       H    -0.28824  -11.66620   15.28001
       O     0.39119  -11.45512   14.57874
      H1     0.92586  -12.21425   14.37971
       H    -0.00872  -16.30976   19.02883
       O     0.04442  -15.35950   18.81409
      H1     0.80761  -15.15387   18.22120
       H     2.01314  -10.96362   16.14935
       O     2.88177  -11.33709   16.10728
      H1     3.38150  -10.87150   16.80231
       H     2.25760   -9.03341   19.55676
       O     2.16807   -8.16047   19.10821
      H1     2.99571   -7.74351   19.44469
       H     6.27634   -9.45078   19.83268
       O     6.29897   -9.51249   18.82317
      H1     6.76807  -10.29194   18.49532
       H     2.61199  -12.78988   18.38746
       O     3.02292  -12.42066   19.16337
      H1     2.34758  -11.89918   19.66052
       H    -1.80588  -13.73616   14.23636
       O    -1.56427  -14.65970   14.07684
      H1    -1.61161  -14.71341   13.15481
       H     1.75501  -10.12714   10.04382
       O     1.19012   -9.56133    9.49334
      H1     1.51333   -8.63879    9.62341
       H     3.29275   -7.02254   12.79735
       O     2.81953   -7.33179   13.59204
      H1     3.20418   -8.21599   13.69665
       H     5.12467   -8.55978   17.49195
       O     4.37726   -8.15353   17.04085
      H1     3.69515   -8.08162   17.69164
       H     3.74065  -10.58660   10.53350
       O     3.03933  -10.77854   11.17428
      H1     2.62465  -11.62630   10.88185
       H     1.33501  -15.16194   13.75339
       O     1.47126  -14.23391   13.49456
      H1     0.54459  -14.00822   13.19000
       H    -4.42647   -7.95744   13.87378
       O    -4.11864   -8.83820   14.04526
      H1    -3.15648   -8.82503   14.29516
       H     2.50157  -17.23555   16.03182
       O     2.50754  -16.38086   15.55369
      H1     3.30154  -16.53321   14.96144
       H    -1.52980   -6.77341   16.47845
       O    -1.61993   -7.74188   16.60905
      H1    -0.70252   -8.03061   16.50486
       H     3.27259  -13.93911   14.26871
       O     4.03961  -13.67419   14.82136
      H1     3.74424  -13.04464   15.47168
       H    -1.16402   -4.18930   16.79865
       O    -0.48584   -4.78333   17.17314
      H1    -0.23928   -5.23514   16.34154
       H     6.42144  -13.32770   16.84399
       O     6.12733  -14.23135   16.55398
      H1     5.46141  -14.05079   15.79482
       H     7.63630  -10.95423   14.16678
       O     6.79351  -11.09430   13.70684
      H1     6.12550  -11.03808   14.43875
       H     5.00665   -6.64631   16.03615
       O     5.71240   -6.11200   15.66241
      H1     5.37906   -5.17022   15.63593
       H     4.72744  -15.61551   13.18838
       O     4.50147  -16.45253   13.64684
      H1     3.97410  -16.99187   13.06316
       H     1.38770   -8.42453   16.35773
       O     1.01004   -9.24807   16.82597
      H1     1.16674   -8.97504   17.74894
       H     0.23677  -15.45398   10.88048
       O    -0.54047  -15.01612   11.25474
      H1    -0.14355  -14.14244   11.40614
       H     2.40768  -14.56377   16.59085
       O     1.74991  -14.02899   17.12160
      H1     1.66288  -13.32091   16.49227

