117
frame 9 | Written by MDAnalysis XYZWriter (release 2.4.3)
       H     3.10730    9.03217   -3.48575
       O     3.28684    8.81144   -4.45838
      H1     3.89674    8.05916   -4.37012
       H     7.23531   10.81986   -1.86901
       O     6.43466   10.29271   -2.03293
      H1     5.96284   10.63963   -2.80853
       H    11.84120    5.62907   -7.78748
       O    11.30709    5.18461   -7.09569
      H1    11.82470    5.40679   -6.28931
       H     8.00557   12.67973   -5.63987
       O     8.69577   13.10663   -5.10507
      H1     8.34589   13.87778   -4.68153
       H     5.06785    5.78384   -4.34681
       O     5.04065    6.63089   -4.81625
      H1     4.53694    6.55185   -5.64039
       H    11.31818    8.90199   -2.09684
       O    11.79256    9.32540   -1.36073
      H1    11.43339    8.86013   -0.58093
       H     4.98320   13.00714    0.58093
       O     4.77587   12.08322    0.42106
      H1     5.33041   11.87156   -0.36541
       H    11.17527   11.82086   -3.21018
       O    10.37615   11.47592   -3.56645
      H1     9.87250   12.09852   -4.18709
       H     6.51676    3.17565    1.13710
       O     6.98920    3.35240    0.33059
      H1     6.51986    4.14196    0.02247
       H     6.68535    6.01035   -2.44067
       O     6.46571    5.09207   -2.37738
      H1     5.55668    5.31419   -2.04603
       H     7.16447    9.30297    1.39736
       O     7.33456    8.32952    1.36133
      H1     7.95967    8.11023    0.68630
       H     5.41834    4.05293   -7.73451
       O     4.49449    3.96553   -8.04107
      H1     4.14381    3.34885   -7.34005
       H     3.47545    8.45159   -0.99787
       O     2.75694    8.31876   -1.60676
      H1     2.68542    7.35711   -1.54220
       H    12.70496   12.59067   -1.73990
       O    12.85340   11.81710   -2.33697
      H1    12.40378   11.11234   -1.86323
       H     5.64396    8.12014    0.91855
       O     4.78754    7.97698    0.49416
      H1     4.15600    7.93379    1.21012
       H     8.98768    7.78117   -1.21379
       O     9.33890    7.74726   -0.30120
      H1     9.51899    6.84215   -0.06254
       H     4.70312   11.84669   -4.65088
       O     5.17305   11.03043   -4.73966
      H1     4.41770   10.38101   -4.62744
       H     5.94566    2.13096   -3.49269
       O     5.37851    2.50891   -4.19454
      H1     4.52438    2.69703   -3.78446
       H     7.27361    3.05988   -6.66045
       O     7.16849    3.70280   -7.33529
      H1     7.72904    4.51283   -7.23170
       H     9.64731    9.68806   -7.35519
       O     9.43787    9.64194   -8.30988
      H1     8.80041    8.89310   -8.33118
       H    11.94002    5.02647   -3.45007
       O    12.10049    5.81612   -3.97338
      H1    12.92846    6.19682   -3.72591
       H     8.26408    6.50946   -6.52409
       O     8.66957    5.91571   -7.15977
      H1     9.62576    5.77493   -6.98372
       H     7.70947    6.83371   -8.49380
       O     7.77103    7.45841   -9.26019
      H1     6.89207    7.87437   -9.25816
       H     6.63314    9.52253   -7.20588
       O     7.07872    9.88256   -6.40241
      H1     6.26912   10.12758   -6.00722
       H     8.79831    2.63310   -2.45992
       O     8.52333    2.02774   -1.71151
      H1     7.87838    2.39648   -1.08687
       H     9.60563   11.12101   -2.00239
       O     9.11142   10.96832   -1.14602
      H1     9.21457    9.97948   -1.06647
       H    13.70239    9.73055   -5.90770
       O    13.27691    9.01918   -5.37345
      H1    12.37041    9.22852   -5.36430
       H     5.03670    9.13811   -9.01345
       O     5.51569    8.70524   -8.31029
      H1     4.89042    7.94872   -8.10963
       H     6.70045    7.21471   -5.23969
       O     7.63942    7.51521   -5.13386
      H1     7.50833    8.38427   -5.66078
       H     4.08338    4.81152    0.83136
       O     4.68622    5.10271    0.13530
      H1     4.75541    6.06846    0.32414
       H     7.31934    8.84667   -2.39563
       O     7.80866    8.00348   -2.56668
      H1     7.69270    7.79641   -3.49785
       H     7.31668   12.11880   -7.93797
       O     8.19421   12.01543   -8.30597
      H1     8.47102   11.12729   -8.25496
       H     7.39247   11.28790    1.57761
       O     6.59229   10.92153    1.96484
      H1     5.84671   11.11882    1.30234
       H     3.65827   11.28401   -1.10962
       O     3.11292   11.52429   -1.89750
      H1     3.58557   12.26206   -2.27592
       H     8.91990    3.59071   -4.99542
       O     8.57483    3.55691   -4.10551
      H1     8.22523    4.37133   -3.81622
       H     3.88363    5.85027   -7.77252
       O     3.92262    6.75447   -7.35442
      H1     3.00010    7.03145   -7.48585
       H     9.96398    9.03153   -5.06410
       O    10.40595    9.68356   -5.69194
      H1    10.61009   10.36469   -5.05170
       H     8.44907    4.65840    0.61813
       O     8.90279    5.31083    1.18132
      H1     9.82340    5.05557    1.16296
       H    10.97650    7.19519   -3.30595
       O    10.55462    8.09315   -3.27037
      H1     9.69933    7.97170   -2.89149

