117
frame 1 | Written by MDAnalysis XYZWriter (release 2.4.3)
       H     8.30072   20.15847   -3.12219
       O     8.06540   19.62394   -3.89078
      H1     7.31682   19.11987   -3.60746
       H    -2.38794   18.08684   -3.45813
       O    -2.57694   17.81131   -2.54773
      H1    -2.23548   18.55270   -2.02853
       H     9.50885   15.77764    2.05539
       O     8.74397   16.38370    1.83546
      H1     7.98407   16.06778    2.35181
       H    -0.13931   15.64382   -2.67453
       O    -0.84662   15.75213   -2.00094
      H1    -1.48056   16.42963   -2.29427
       H     6.37203   13.27666   -1.42306
       O     5.84608   13.52390   -2.15678
      H1     6.25015   13.13318   -2.97641
       H     1.57451   19.04021    1.67166
       O     1.52059   18.10216    1.80270
      H1     0.71128   17.81397    1.30178
       H    -2.26249   18.95298   -5.40788
       O    -1.54896   18.47571   -4.87835
      H1    -0.86830   19.13336   -4.65847
       H     0.48148   11.92154   -0.63748
       O     1.30895   11.53819   -1.02071
      H1     1.88651   12.26895   -1.12116
       H     3.37149   20.05483    5.63680
       O     3.27498   19.10037    5.49809
      H1     4.16705   18.78503    5.19979
       H     6.15294   16.97900   -2.58276
       O     6.92682   17.60546   -2.41044
      H1     7.57982   17.52838   -3.07524
       H    11.81938   18.43946   -1.51313
       O    11.66715   18.49800   -2.47736
      H1    12.57232   18.58749   -2.80775
       H     2.35113   16.95350   -1.11078
       O     2.40989   17.18988   -2.05195
      H1     2.46712   18.17275   -2.04993
       H     1.46456   17.85822    3.73276
       O     1.39725   17.44914    4.57718
      H1     2.19276   17.85818    5.02164
       H     3.49552   14.86510    1.26139
       O     3.52950   15.43290    0.39687
      H1     3.95751   16.28421    0.57497
       H     5.05558   17.29989   -6.85690
       O     4.80319   16.52038   -7.46796
      H1     4.45726   15.86197   -6.86221
       H     7.91810   16.15383   -1.33202
       O     8.45457   15.71014   -0.68878
      H1     8.19562   16.17290    0.13028
       H    -0.66815   14.59724    2.67937
       O     0.26720   14.62764    2.55974
      H1     0.57248   15.45835    2.88000
       H     0.08821   13.88539    0.46073
       O    -0.50616   13.26348    0.00974
      H1    -0.73432   13.84539   -0.75421
       H     5.51971   18.51427   -1.32972
       O     5.00017   18.88215   -0.62228
      H1     4.16951   18.83274   -1.11142
       H     8.98171   19.41707    3.42565
       O     8.31796   19.64054    4.08989
      H1     8.35100   18.89781    4.76057
       H    -1.28128   17.11451    0.65927
       O    -0.54791   17.32361    0.08407
      H1    -0.55317   16.66766   -0.61992
       H     8.81603   15.32090    6.28000
       O     8.96332   15.54174    5.34179
      H1     8.09664   15.62047    4.88399
       H     4.00507   16.43255   -2.55251
       O     4.79407   15.99984   -2.92105
      H1     4.95044   15.13763   -2.43914
       H    11.93104   16.11151   -1.03888
       O    12.08738   16.64239   -0.26114
      H1    12.21135   15.97747    0.40110
       H     5.49861   16.27925    3.37640
       O     6.27298   15.67027    3.60850
      H1     5.81149   14.80055    3.67386
       H    11.17376   13.66976   -0.31177
       O    10.42329   13.48679   -0.84082
      H1     9.76627   14.16012   -0.57748
       H     5.11084   19.14223   -5.61133
       O     5.24164   18.34121   -5.07248
      H1     4.34067   18.02189   -4.81931
       H    -1.23348   19.12239   -0.02563
       O    -1.88848   19.71918   -0.43170
      H1    -2.38901   20.14550    0.28668
       H     5.90160   19.74796    1.73434
       O     5.53412   19.40529    2.55950
      H1     6.28676   19.04533    3.01905
       H     7.01022   17.02329   -5.13515
       O     7.97511   16.84760   -5.15422
      H1     8.35318   17.46540   -5.79866
       H     1.72492   14.11588   -3.36931
       O     0.94411   14.09466   -3.94446
      H1     1.09846   14.72450   -4.59919
       H     9.90086   18.34697    0.63947
       O    10.40663   19.19837    0.53966
      H1     9.64543   19.83841    0.54173
       H     4.55136   18.03371    2.70013
       O     4.05303   17.21678    2.83669
      H1     3.22210   17.34550    2.41468
       H     3.97209   14.87858   -4.48249
       O     4.03572   14.73490   -5.45162
      H1     3.98054   13.82055   -5.73188
       H    10.61329   17.42853   -3.56005
       O    10.42780   16.66732   -4.07213
      H1     9.44518   16.72076   -4.29259
       H     7.60139   13.59933    0.61158
       O     6.63568   13.70093    0.44852
      H1     6.55246   14.67432    0.50110
       H     2.95430   14.31217   -1.16304
       O     2.97701   13.52241   -1.73516
      H1     3.91702   13.42662   -2.03029
       H     5.83811   16.93118    5.72234
       O     5.87517   17.87685    5.51513
      H1     6.05080   18.38630    6.32118
       H     5.24984   13.34939    1.64282
       O     4.41143   13.34356    2.13539
      H1     3.84344   12.72345    1.64402

