117
frame 7 | Written by MDAnalysis XYZWriter (release 2.4.3)
       H    -0.80622    8.80820    9.56634
       O    -1.58964    9.38477    9.35058
      H1    -2.24624    8.66808    9.32432
       H     1.96854    3.14441    3.92355
       O     1.79074    3.70648    4.70708
      H1     2.53818    4.24743    4.80918
       H     2.14093    3.55865    9.20895
       O     2.66623    4.17729    9.75626
      H1     3.51298    3.64946    9.94077
       H    -0.27056    5.48345    4.50976
       O     0.15427    5.92347    5.29249
      H1     1.06096    5.60684    5.32535
       H    -7.49304    1.15709    6.31426
       O    -6.89630    1.89515    6.42391
      H1    -5.96738    1.57770    6.22446
       H     2.95355    6.46554    6.73454
       O     3.35191    6.14131    5.93835
      H1     4.18697    5.70198    6.23941
       H     4.60781   -0.80342    5.80516
       O     3.78366   -0.22613    5.76600
      H1     4.01650    0.60485    6.25618
       H     0.26175   -2.20663    2.74310
       O     1.00656   -2.26154    3.41217
      H1     0.78508   -1.65393    4.10640
       H    -1.63605    4.54132    9.50885
       O    -1.94223    4.31088    8.67589
      H1    -2.87402    4.04342    8.76236
       H    -2.39967    6.73206    0.90637
       O    -2.58352    5.84789    1.21669
      H1    -1.96743    5.68522    1.96052
       H    -2.46405    1.81716    3.89930
       O    -3.43607    1.88180    3.96656
      H1    -3.74577    1.53176    3.11859
       H    -0.30176   -3.61406    7.34086
       O    -1.12819   -3.13218    7.19951
      H1    -0.84496   -2.32608    6.66110
       H     0.31487    5.33687   10.11742
       O    -0.37235    5.15938   10.74683
      H1    -0.40763    5.96753   11.29270
       H    -7.02063    2.88326    4.71414
       O    -6.73801    3.29270    3.88246
      H1    -6.00316    3.83094    4.13622
       H    -0.97622    3.83901    3.62211
       O    -1.43068    4.62934    3.49727
      H1    -2.33280    4.53812    3.93654
       H    -1.95320    5.73680    7.80209
       O    -1.96641    6.61259    7.37053
      H1    -1.33533    6.50024    6.64371
       H    -5.10466    6.89516    5.52527
       O    -6.00984    6.81386    5.14785
      H1    -6.57621    7.13941    5.88251
       H    -2.08329   -1.07331    9.97338
       O    -1.23022   -0.89910    9.53714
      H1    -1.23294   -1.65756    8.87825
       H    -5.25633    5.91785    8.63780
       O    -5.48217    5.36672    7.90714
      H1    -4.99734    4.54684    7.92506
       H     0.87738   -0.70148    6.39119
       O     0.19307   -0.68247    5.68135
      H1    -0.20128    0.17388    5.49925
       H     1.11757    8.36720    9.15238
       O     0.84244    8.90751    9.93901
      H1     1.04846    8.50049   10.77607
       H    -4.01049    0.50443    6.91745
       O    -4.49828    0.46044    6.08614
      H1    -3.96623    0.90087    5.40712
       H     2.85411   -0.85062    7.19483
       O     2.04452   -1.12577    7.63693
      H1     2.26667   -1.01346    8.56075
       H     1.49175    5.19995   12.23267
       O     2.08757    5.48062   12.86522
      H1     1.62692    5.91005   13.56558
       H    -1.14610    3.60603    7.47534
       O    -0.48471    3.43697    6.72151
      H1    -0.38812    4.25905    6.27222
       H     0.91482    2.54749    7.31276
       O     1.58611    2.25509    7.93836
      H1     2.49757    2.35059    7.54958
       H     0.24819    0.23032    9.78079
       O     1.04617    0.83927    9.97911
      H1     1.34956    1.17193    9.04935
       H     2.93494    7.44733    8.65944
       O     2.10416    7.49028    8.21030
      H1     2.29255    8.22916    7.59162
       H    -1.57431    0.51092    0.45683
       O    -1.52953    1.32042    1.01897
      H1    -2.44401    1.49092    1.30848
       H     0.75864    8.03729    2.69548
       O    -0.10055    7.66710    3.03266
      H1     0.14323    7.25708    3.89362
       H     3.57189    5.82305    9.84899
       O     4.15936    6.56038    9.70957
      H1     4.22903    7.04032   10.53835
       H    -0.28693    2.41749    5.03111
       O    -0.71829    1.91553    4.33257
      H1     0.01976    1.71677    3.73091
       H    -4.18043    5.13992    3.79144
       O    -4.08406    4.51143    4.52166
      H1    -4.08828    3.57409    4.19346
       H     1.75458    1.87543    2.03501
       O     1.69487    1.45842    2.90396
      H1     2.53102    0.89183    2.96262
       H     4.94286    1.24377    7.88579
       O     4.34028    1.80422    7.30818
      H1     5.09386    1.97174    6.65921
       H    -0.26774    3.30576   11.72351
       O     0.27234    2.54132   11.96405
      H1     0.53588    2.26975   11.05707
       H     4.22487    7.12356    4.61725
       O     4.61805    7.52311    3.83809
      H1     5.37810    6.98675    3.66991
       H    -4.25647    3.02944   10.65709
       O    -4.34640    3.27287    9.69574
      H1    -5.01138    2.60535    9.45648
       H    -3.03366    7.72675    6.48515
       O    -3.41697    8.34310    5.79717
      H1    -2.89608    9.19702    5.80740

