117
frame 6 | Written by MDAnalysis XYZWriter (release 2.4.3)
       H     0.71270   17.40825  -10.46742
       O     1.47528   17.20107  -11.06401
      H1     2.18411   16.76454  -10.51261
       H    -8.02429   11.55576  -13.26719
       O    -7.94740   12.45157  -13.60179
      H1    -8.41263   12.91620  -12.91485
       H    -3.97080   14.33227  -11.03071
       O    -4.57063   13.60440  -11.01412
      H1    -4.36242   12.96366  -11.66655
       H    -4.00293   14.92009  -15.16210
       O    -3.02480   15.04791  -15.22361
      H1    -2.88370   15.68789  -15.96427
       H    -2.62262   16.47438  -12.71257
       O    -2.81754   17.01727  -13.48674
      H1    -2.88740   16.38304  -14.22511
       H    -3.44829   19.27255  -14.39793
       O    -4.27519   19.79796  -14.37666
      H1    -4.84607   19.52442  -13.66756
       H     0.79557   16.02098  -13.42455
       O     1.17774   15.22894  -13.01103
      H1     1.32924   15.51021  -12.08364
       H     1.39056   12.00598  -12.83541
       O     1.25248   11.83216  -11.87584
      H1     0.32037   11.60001  -11.80150
       H     2.57104   15.11534  -13.75061
       O     3.42729   15.25431  -14.14452
      H1     3.52890   14.47368  -14.75289
       H    -1.00128   16.07526  -18.27309
       O    -0.66204   16.40520  -17.43770
      H1    -0.34490   15.65946  -16.90911
       H    -3.99103   17.33727  -17.84725
       O    -4.32434   16.65274  -17.21644
      H1    -4.71611   16.00841  -17.78888
       H    -1.20658   18.96688  -11.00830
       O    -1.18788   19.20985  -10.04709
      H1    -2.11858   19.29000   -9.82781
       H    -6.26676   11.99250  -16.63127
       O    -5.84842   11.34585  -16.04527
      H1    -6.40586   10.55682  -16.18794
       H    -5.56699    7.94054  -17.97079
       O    -5.89051    8.86151  -18.06277
      H1    -5.18258    9.31130  -17.61900
       H    -0.79575   18.37960  -15.07237
       O    -1.47375   18.88248  -15.51574
      H1    -1.56381   18.27712  -16.29309
       H    -1.69646   14.00479  -13.33018
       O    -1.07520   13.85056  -12.60994
      H1    -0.30663   14.25274  -12.91708
       H    -1.32881    9.66866  -13.87934
       O    -0.94589   10.12476  -14.69060
      H1    -1.63187   10.57224  -15.14749
       H    -6.05524   14.68577  -11.05186
       O    -6.68812   15.45125  -11.16765
      H1    -6.18706   16.26404  -10.95770
       H    -8.61782   18.40575  -12.87464
       O    -8.00032   18.22634  -12.11951
      H1    -7.43424   17.44062  -12.27821
       H     1.47904   17.82337  -14.78345
       O     0.59645   17.58406  -14.38721
      H1     0.51259   18.18798  -13.69037
       H    -4.85724   10.60940  -12.84119
       O    -4.45697   11.41118  -13.14988
      H1    -4.96387   11.61428  -13.93127
       H    -4.71492   17.13978  -14.09450
       O    -5.60416   16.98476  -13.78209
      H1    -6.25386   17.22841  -14.48664
       H    -7.58582   18.73277  -16.43421
       O    -7.52570   18.02129  -15.74829
      H1    -8.30779   18.05421  -15.16948
       H    -2.14972   11.61976  -10.07307
       O    -1.50614   11.50980  -10.76887
      H1    -1.69398   12.11806  -11.52081
       H     0.38759   11.93492  -18.55032
       O     0.30734   12.90853  -18.32939
      H1    -0.26253   12.87861  -17.53627
       H    -7.36576   16.27314  -16.19377
       O    -7.70489   15.30832  -16.16873
      H1    -7.26850   14.80857  -15.41713
       H    -7.63609   13.32724  -18.37250
       O    -6.72393   13.62457  -18.07481
      H1    -6.91555   14.25155  -17.33411
       H    -2.78632   19.27657  -19.09815
       O    -3.29683   18.40844  -19.13502
      H1    -2.64763   17.80731  -19.54046
       H    -0.65877   13.13742  -15.46543
       O    -1.29262   13.30007  -16.15249
      H1    -1.95589   13.91192  -15.79588
       H    -1.58033   18.51314  -13.04716
       O    -0.78351   19.00237  -12.68157
      H1    -0.92315   19.88471  -13.03596
       H    -6.45698   13.53788  -13.95035
       O    -5.92823   14.31891  -14.19623
      H1    -6.06596   14.98288  -13.50658
       H    -0.02139   17.79146  -18.15696
       O     0.14687   18.64912  -18.57344
      H1     0.36583   19.20075  -17.77679
       H    -1.67016    9.80153  -19.14915
       O    -2.50769   10.30794  -19.28622
      H1    -3.15942    9.69181  -19.72675
       H     1.51852   12.15030  -15.31635
       O     0.89085   12.43922  -14.67196
      H1     0.21328   11.75033  -14.63048
       H    -1.93830   14.86544  -11.11155
       O    -2.55566   15.59731  -10.99512
      H1    -2.50822   15.96047  -10.06160
       H     2.08596   13.30743  -18.31150
       O     3.06306   13.15538  -18.42683
      H1     3.14072   12.35991  -18.99163
       H    -3.92033   12.73893   -9.54951
       O    -3.62661   12.20022   -8.79397
      H1    -3.09060   12.86423   -8.28793
       H    -9.75410   14.17619  -11.61081
       O    -8.87955   13.70891  -11.50737
      H1    -8.22234   14.33164  -11.28235
       H    -3.09463   10.36834  -17.64008
       O    -3.37522   10.39268  -16.69159
      H1    -4.28067   10.78142  -16.71370

