120
frame 6 | Written by MDAnalysis XYZWriter (release 2.4.3)
       H   -16.79229  -17.51740   15.76122
       O   -16.26970  -17.65552   14.90869
      H1   -16.71295  -18.46333   14.53097
       H   -10.01020  -18.83260   18.31873
       O   -10.45814  -19.63072   18.12216
      H1   -10.03136  -20.04709   17.31486
       H   -11.37299  -13.86530   13.20389
       O   -11.74543  -14.44415   12.55842
      H1   -12.69126  -14.32402   12.51386
       H   -10.29138  -10.31867   16.74607
       O   -11.02052  -10.37764   17.40631
      H1   -11.28044   -9.49208   17.56664
       H    -9.53261  -11.69597   19.77792
       O   -10.47513  -11.70538   19.50417
      H1   -10.56820  -11.16016   18.73885
       H    -5.57643  -17.33996   13.23184
       O    -4.87345  -16.74284   12.89349
      H1    -4.06142  -17.01197   13.33447
       H    -5.16802  -16.75012   17.70264
       O    -5.23949  -16.50174   16.77721
      H1    -6.16629  -16.63181   16.52110
       H   -13.43300  -10.73377   15.19006
       O   -12.91624  -11.39216   15.72401
      H1   -12.32389  -10.92608   16.34185
       H   -16.34431  -13.99162   19.39283
       O   -16.69171  -13.59226   18.62501
      H1   -15.98342  -13.18947   18.09813
       H   -10.50797  -14.77134   19.55753
       O   -10.90551  -14.30997   18.79912
      H1   -10.94101  -13.36722   19.06947
       H   -15.12542  -18.84549   11.10808
       O   -14.98830  -18.38021   11.91673
      H1   -14.08277  -18.04242   11.80846
       H    -8.15149  -14.28064   16.13225
       O    -7.53757  -14.97762   15.83703
      H1    -7.03836  -14.59737   15.14037
       H   -15.00154  -12.42243   15.86961
       O   -15.89061  -12.54115   16.17544
      H1   -16.22117  -13.33991   15.70640
       H    -7.59348  -13.17748   11.21481
       O    -6.71528  -13.54052   11.22983
      H1    -6.36593  -13.17819   10.44277
       H   -13.09892  -18.73094   19.48571
       O   -13.70165  -18.27210   18.88251
      H1   -13.19618  -18.16717   18.05448
       H   -11.18911  -10.54105   10.74441
       O   -10.22242  -10.82516   10.85006
      H1   -10.22630  -11.76721   10.73736
       H    -5.90142  -18.92723   14.77679
       O    -6.51526  -18.43813   14.20501
      H1    -6.89915  -19.05246   13.55517
       H    -6.25717  -14.15576   12.90351
       O    -5.73353  -14.36882   13.67636
      H1    -5.22223  -15.25163   13.49694
       H    -2.72003  -14.51632   15.17109
       O    -3.24909  -14.89715   15.93576
      H1    -4.17769  -14.70258   15.78562
       H   -10.24093  -14.42352    7.82398
       O    -9.75229  -15.23124    7.94033
      H1   -10.33866  -15.89936    8.27511
       H   -11.56847  -12.02077   14.82212
       O   -10.86810  -12.25450   14.23949
      H1   -10.82895  -11.48721   13.72858
       H   -13.08356  -14.42291   18.35172
       O   -13.86557  -14.40549   17.77817
      H1   -13.96638  -15.29096   17.48295
       H   -15.35471  -12.48848   12.53143
       O   -15.25570  -11.71464   12.01153
      H1   -16.06794  -11.51324   11.49556
       H   -12.18853  -17.19125   10.70247
       O   -12.50196  -17.20233   11.62623
      H1   -12.16304  -16.39691   12.06851
       H    -8.46104  -16.34178   15.71181
       O    -9.08598  -17.09251   15.43970
      H1    -8.56643  -17.60929   14.87265
       H   -14.89892  -14.71723   13.23754
       O   -14.37989  -14.03254   13.66047
      H1   -14.68424  -14.14357   14.55931
       H    -8.16673  -18.58922   10.22058
       O    -8.79674  -18.59597    9.48250
      H1    -8.26309  -18.46476    8.65998
       H   -10.05627  -13.38784   15.69033
       O    -9.67512  -13.43083   16.57905
      H1   -10.44187  -13.66754   17.19073
       H   -11.59035  -15.81968   14.01084
       O   -11.55368  -16.51655   14.61178
      H1   -10.69023  -16.52391   14.90847
       H    -9.79474  -17.05906   19.50613
       O    -9.44944  -17.26822   18.60803
      H1    -9.89765  -16.73013   17.92667
       H   -10.20334  -14.39114    9.71733
       O   -10.36969  -13.56248   10.22479
      H1   -10.80404  -13.89329   11.02446
       H    -6.31530  -18.57512   11.52056
       O    -6.88938  -19.30776   11.34958
      H1    -6.42387  -19.96694   10.86717
       H   -14.50660  -17.72134   15.72242
       O   -13.61829  -17.82166   16.08042
      H1   -12.99841  -17.27316   15.49376
       H    -6.05847  -13.39784   18.97676
       O    -6.03787  -13.56198   18.05500
      H1    -6.33431  -14.44562   18.00653
       H    -6.09820  -18.07277   18.77167
       O    -6.71977  -17.70996   19.40287
      H1    -7.53187  -17.48127   18.95281
       H   -10.44368  -17.57614    9.46805
       O   -11.17897  -16.95927    9.23890
      H1   -11.89589  -17.47964    8.85334
       H   -12.68651  -18.88528   14.65888
       O   -12.09585  -19.21956   13.96097
      H1   -12.02051  -18.45661   13.34955
       H    -8.66354  -11.76554   17.66389
       O    -7.80155  -11.43620   17.98933
      H1    -7.29533  -12.27487   17.92639
       H   -17.10320  -15.73404   12.10629
       O   -16.10013  -15.84481   12.13517
      H1   -15.91394  -16.81085   12.04146
       H   -17.62950  -14.51687   14.17605
       O   -17.02699  -14.68272   14.93282
      H1   -16.76826  -15.58377   14.81191

