120
frame 0 | Written by MDAnalysis XYZWriter (release 2.4.3)
       H    13.08062    0.01812  -19.30508
       O    13.06566    0.42481  -18.40718
      H1    13.98819    0.74551  -18.25451
       H    15.29946    5.01848  -19.24730
       O    14.56818    5.26170  -18.63121
      H1    15.00955    5.49886  -17.81046
       H    11.81157    5.00449  -17.33936
       O    10.84367    5.27150  -17.17923
      H1    10.38588    4.37804  -17.12552
       H    16.17892   11.89131  -14.03822
       O    16.41896   12.68546  -13.46965
      H1    15.81228   12.71773  -12.71201
       H    11.43299    9.06913  -13.35355
       O    10.80005    8.38783  -13.51491
      H1    10.95778    8.05547  -14.40499
       H    18.69813    0.29502  -12.18115
       O    18.91934    1.19430  -12.38897
      H1    19.81129    1.32170  -12.01696
       H    18.37577   15.21738  -17.64654
       O    18.40396   16.15483  -17.42590
      H1    17.69078   16.14757  -16.78481
       H    10.21378   10.18429  -16.21365
       O    10.78193    9.76583  -16.88604
      H1    10.57936   10.36179  -17.65703
       H    13.42046    8.07271  -18.80433
       O    13.52562    7.48253  -19.58743
      H1    13.94234    6.72040  -19.18135
       H    16.94953    9.54122  -14.31428
       O    16.28655   10.00997  -14.93268
      H1    16.90772   10.25184  -15.64941
       H    18.39591    7.40497  -18.47599
       O    18.77768    6.89243  -17.77132
      H1    19.67869    7.25047  -17.76611
       H    13.90958    3.90096  -17.83947
       O    13.79096    3.40178  -16.99223
      H1    13.18029    2.80985  -17.33741
       H    17.49969    2.23141  -11.44430
       O    16.67481    2.57600  -11.09703
      H1    16.98888    2.88660  -10.20589
       H    16.57821   14.12540  -14.44553
       O    16.43883   14.89707  -15.04511
      H1    15.87090   14.52402  -15.77407
       H    13.95775    8.67394  -13.61291
       O    13.79595    8.77397  -14.58391
      H1    14.47843    9.46390  -14.73095
       H    14.54237    5.37997  -12.91003
       O    14.03131    6.20554  -12.95048
      H1    13.28065    5.90939  -13.51860
       H    19.60831   13.91119  -18.63051
       O    18.82837   13.39671  -18.28860
      H1    18.51208   12.91385  -19.06884
       H    17.61056    5.40801  -12.56742
       O    18.49336    5.67555  -12.26219
      H1    18.95631    5.72267  -13.11447
       H    11.54276    5.57527  -15.10152
       O    11.86217    5.24290  -14.24067
      H1    11.06408    5.20617  -13.74449
       H    16.83178    9.22050  -19.52835
       O    17.72830    8.82473  -19.36105
      H1    18.31878    9.59061  -19.29666
       H    14.33454   13.61827  -17.48105
       O    14.65346   14.52398  -17.22465
      H1    15.19043   14.71264  -18.01496
       H    15.57590    2.54436  -17.10014
       O    16.13204    1.69931  -17.05630
      H1    15.72907    1.03650  -16.53102
       H    13.28412    6.00687  -11.44111
       O    12.83961    5.84408  -10.54949
      H1    13.50971    5.22426  -10.16539
       H    17.49066    3.86904  -18.13686
       O    17.15031    4.44698  -17.41251
      H1    17.69604    5.24128  -17.66012
       H    17.82808   -0.15913  -18.34389
       O    17.12595    0.17846  -19.01116
      H1    16.81333    0.94102  -18.49615
       H    13.98414    5.65754  -15.79240
       O    14.62129    6.34773  -16.04121
      H1    14.37003    7.16380  -15.62878
       H    12.32904    9.09544  -17.09236
       O    13.26114    9.05499  -17.42810
      H1    13.77732    9.05834  -16.60381
       H    17.67131   12.06673  -12.31769
       O    18.36029   11.79038  -11.66065
      H1    17.98397   10.89919  -11.51639
       H    19.78836    8.41140  -11.16102
       O    19.62535    8.93259  -11.94055
      H1    18.64715    8.76036  -11.95530
       H    18.99406   12.19424  -16.92960
       O    18.65678   11.54768  -16.32831
      H1    19.13593   11.63086  -15.49615
       H    15.24531    0.05719  -14.78218
       O    14.87735   -0.38183  -15.57621
      H1    15.19381   -1.28398  -15.58323
       H    16.23600    9.10951  -12.31764
       O    17.07163    8.68776  -12.51129
      H1    16.94248    7.74787  -12.49344
       H    18.35143    1.88647  -14.51649
       O    17.95395    2.74005  -14.72034
      H1    17.53653    2.53386  -15.54604
       H    18.94021    4.41519  -15.27951
       O    19.47543    5.10496  -15.51105
      H1    18.98955    5.70218  -16.02900
       H    13.67666   10.43109  -12.32500
       O    14.63809   10.48971  -12.30047
      H1    14.74677   11.09249  -11.51997
       H    16.14232    1.49921  -12.70016
       O    15.70570    0.86449  -13.28635
      H1    15.05350    0.55384  -12.60401
       H    18.27559    1.59326  -18.88561
       O    18.62251    2.48142  -19.12613
      H1    19.41711    2.45484  -18.50815
       H    16.05785    4.14059  -13.89554
       O    16.09074    4.45375  -12.98859
      H1    16.24298    3.64335  -12.40026
       H    13.07752   11.14752  -16.56063
       O    13.21816   12.06034  -16.80459
      H1    13.20286   12.03534  -17.79932
       H    10.66230    6.17899  -18.71680
       O    10.92972    6.48971  -19.62519
      H1    11.88590    6.77111  -19.47340

