120
frame 6 | Written by MDAnalysis XYZWriter (release 2.4.3)
       H     1.25205   15.92283   -1.61458
       O     0.44105   15.57624   -1.15518
      H1    -0.05069   15.08455   -1.80874
       H    -2.09908   14.11191    3.39525
       O    -2.17675   15.05120    3.41232
      H1    -2.54961   15.27216    2.56072
       H     2.79991   12.55820   -0.48935
       O     3.01450   11.65609   -0.60843
      H1     3.97771   11.64634   -0.81205
       H    -2.55355   16.43609    8.86990
       O    -1.76356   16.77204    8.32368
      H1    -1.30316   16.01386    7.92134
       H     1.60721    9.20548    5.28758
       O     2.30213    9.31539    5.96839
      H1     2.26841   10.25455    6.12549
       H     3.00475   15.16602    6.95276
       O     3.70167   15.79596    7.28536
      H1     3.30748   16.65185    7.11651
       H     0.67187   18.88279    4.58156
       O     0.86966   17.99538    4.93160
      H1     1.35358   18.18752    5.76836
       H     3.75343   15.07211    2.53857
       O     3.11889   15.47422    1.85548
      H1     2.62238   16.13426    2.34095
       H    -1.84716   11.21024   -1.25558
       O    -1.99516   11.23274   -2.24961
      H1    -2.90581   11.18440   -2.34549
       H     3.98036   11.65753    6.96777
       O     3.06177   11.86858    7.12500
      H1     2.92598   11.69266    8.11462
       H    -1.26638   11.91239    9.31482
       O    -0.80253   12.68029    9.58927
      H1    -0.93473   13.17802    8.76795
       H     1.85710   13.78897    5.25797
       O     1.82775   13.97348    6.17139
      H1     2.30232   13.20599    6.56191
       H    -0.65599   15.84266    3.21433
       O     0.27795   16.17927    3.15976
      H1     0.34092   16.94381    3.82043
       H     1.90882   13.87862    1.36016
       O     1.33387   13.55789    0.63554
      H1     1.06446   14.27985    0.05633
       H     3.68313    8.51323    2.76736
       O     2.97206    8.87438    2.20709
      H1     3.00226    9.86547    2.38517
       H    -4.64992   14.51757    2.31834
       O    -4.37210   15.11816    1.62001
      H1    -4.91130   15.87510    1.83592
       H    -4.47353   12.12364    3.67098
       O    -4.77382   12.42388    2.79887
      H1    -5.68500   12.19562    2.69778
       H    -0.71604   18.30065    1.51988
       O    -0.53206   18.02224    0.58811
      H1    -0.33291   17.09207    0.54465
       H    -1.52256   14.12715    6.82174
       O    -0.76225   14.22792    7.42921
      H1    -0.02357   14.07588    6.82494
       H    -0.73078    9.38866    2.95981
       O    -1.52819    9.94867    2.68625
      H1    -2.27222    9.41837    2.96212
       H    -1.06833   11.76903    4.89569
       O    -0.94707   12.32333    4.13278
      H1    -1.19501   11.70394    3.45142
       H     5.37921   11.32540    3.23389
       O     5.89064   10.83029    3.88779
      H1     5.41996   10.00001    4.06587
       H    -0.80397   11.19836    0.94113
       O    -0.42902   11.50450    0.08094
      H1     0.06437   12.31274    0.27035
       H    -0.74004    9.35309    0.08217
       O    -0.85038    8.48763   -0.28661
      H1    -0.54099    8.58967   -1.21656
       H     2.34393   12.25754    2.61895
       O     2.94356   11.65941    2.12337
      H1     2.65707   11.70826    1.18839
       H     5.89906   11.57668    5.55740
       O     5.70009   11.86299    6.41071
      H1     6.19020   11.31259    7.05101
       H     4.72649   18.45942    2.50663
       O     3.81262   18.29324    2.82961
      H1     3.25232   18.60263    2.11919
       H     5.92556   13.77019    6.34387
       O     6.01927   14.74595    6.30518
      H1     5.22378   15.24209    6.53280
       H    -1.41144   10.31948    6.95835
       O    -1.42649   10.62096    6.08866
      H1    -2.28909   11.00132    6.02286
       H     2.79786    7.40394    8.40694
       O     2.02495    7.28720    7.80269
      H1     2.04345    8.00422    7.12811
       H     0.58528   13.13884    3.96033
       O     1.32873   13.54449    3.50540
      H1     1.15337   14.45229    3.22577
       H    -0.75843   18.34844    5.90617
       O    -1.45247   18.78568    6.33085
      H1    -1.87129   18.12608    6.93417
       H     1.52879    8.43727    3.17551
       O     0.73115    8.53769    3.73524
      H1     0.58496    7.63106    3.99998
       H     3.82431   14.77568    0.24762
       O     4.04072   14.60465   -0.68589
      H1     4.95016   14.91633   -0.70749
       H     0.55716   11.53085    9.31789
       O     1.47234   11.29330    9.64552
      H1     1.34169   10.40938    9.91804
       H     4.12969    8.12866    4.68567
       O     4.69393    8.12652    3.89065
      H1     5.40075    7.44114    4.04742
       H    -3.93575   15.10903    6.21775
       O    -3.11374   14.67096    5.95457
      H1    -2.95536   15.04770    5.07396
       H    -2.32054    7.89481    5.92812
       O    -3.01701    8.44360    5.57959
      H1    -2.57345    9.27224    5.27370
       H    -3.65726   12.95681    5.48578
       O    -3.82907   11.99720    5.43991
      H1    -4.74649   11.98271    5.69689
       H     5.53604   13.09717    2.07972
       O     4.91577   13.41540    2.78032
      H1     4.04551   12.94530    2.60165

