120
frame 0 | Written by MDAnalysis XYZWriter (release 2.4.3)
       H    -2.64067  -10.04963  -14.32809
       O    -2.46197   -9.37273  -13.60429
      H1    -2.98812   -9.73666  -12.87267
       H    -3.72895  -12.93577  -16.63078
       O    -3.84609  -13.86349  -16.77382
      H1    -4.11939  -13.87074  -17.68650
       H    -5.20305  -13.11162  -15.19382
       O    -5.75943  -13.31423  -14.45930
      H1    -6.66636  -13.36218  -14.85806
       H    -0.91714  -15.17438  -11.48663
       O    -1.88305  -15.05977  -11.40057
      H1    -2.15866  -14.48347  -12.12355
       H    -1.83568  -11.53431  -15.85956
       O    -2.72607  -11.57061  -15.49992
      H1    -2.63904  -12.27814  -14.82128
       H    -1.38461  -11.42313  -18.27666
       O    -0.81700  -10.80226  -17.80324
      H1    -0.10332  -10.78505  -18.46103
       H     6.67395  -17.85099  -14.85826
       O     5.75458  -17.91111  -15.05202
      H1     5.47459  -17.08561  -14.62265
       H    -1.80858  -16.58882  -13.70782
       O    -1.28098  -16.09601  -14.43553
      H1    -0.45603  -16.05122  -13.97223
       H     4.50571  -15.02879  -14.23322
       O     4.71564  -15.73445  -13.61107
      H1     5.38272  -15.25416  -13.09832
       H     2.04915  -12.95138  -12.49683
       O     3.06358  -12.85889  -12.38315
      H1     3.29813  -13.07042  -13.32894
       H     1.06303  -17.80221  -18.47148
       O     0.21941  -18.16145  -18.78090
      H1    -0.29534  -17.98137  -17.95615
       H     1.82187  -12.22305  -17.89060
       O     2.59887  -12.36595  -17.37981
      H1     3.34972  -12.26144  -17.97149
       H     0.87029  -14.70761  -16.96120
       O     0.29527  -14.27432  -16.33357
      H1    -0.44361  -14.19200  -16.93092
       H    -5.92065  -18.72402  -15.37581
       O    -4.95865  -18.55777  -15.47009
      H1    -4.83475  -17.74468  -15.01193
       H     1.52197  -17.21758  -14.03735
       O     1.05317  -16.82397  -13.34499
      H1     1.67663  -16.20760  -12.93975
       H    -8.91312  -17.38617  -18.22029
       O    -8.16665  -17.05530  -17.69750
      H1    -8.31499  -16.05803  -17.86351
       H    -4.76268  -15.19762  -14.01968
       O    -5.07176  -16.14268  -14.02220
      H1    -4.54332  -16.44224  -13.27703
       H    -1.85277  -14.18891  -14.28644
       O    -1.96217  -13.45439  -13.62796
      H1    -1.07518  -13.28476  -13.29848
       H     5.30364  -12.44401  -18.86245
       O     4.86411  -11.65032  -19.06549
      H1     5.38987  -10.95697  -18.56971
       H     2.44562  -16.27769  -16.88856
       O     2.24339  -15.72590  -17.71636
      H1     3.09456  -15.29557  -17.91945
       H    -0.97567   -9.05934  -16.81065
       O    -1.00122   -8.11460  -16.75789
      H1    -0.24344   -7.93829  -16.10485
       H    -2.52160  -10.36901  -19.67586
       O    -3.17400  -11.00638  -19.30089
      H1    -2.94029  -11.80548  -19.79356
       H     3.48415  -17.50784  -14.67812
       O     2.87649  -17.11069  -15.32895
      H1     2.66130  -17.89337  -15.90859
       H    -2.96790  -15.74398  -16.48892
       O    -2.84277  -16.59988  -16.91376
      H1    -2.86850  -17.19571  -16.15950
       H    -6.72861  -10.73122  -16.91055
       O    -7.50363  -11.29136  -17.05246
      H1    -7.83468  -10.94258  -17.91125
       H     0.14407  -19.54252  -11.14254
       O     0.61666  -18.73577  -11.00357
      H1     0.45121  -18.30287  -11.85288
       H     2.54819  -14.88965  -14.75124
       O     3.06918  -14.18328  -15.06893
      H1     2.45870  -13.78939  -15.70644
       H     1.65884   -9.02997  -14.57674
       O     2.30779   -9.72387  -14.46401
      H1     1.75894  -10.43121  -14.10092
       H     5.25382  -17.21359  -17.01311
       O     5.44970  -16.95536  -17.90730
      H1     6.40875  -17.23966  -17.95578
       H     0.14552  -12.12203  -12.12653
       O     0.48397  -13.04704  -12.12527
      H1     0.63972  -13.04884  -11.18238
       H    -1.15696   -8.54790  -18.74763
       O    -1.54063   -8.57840  -19.62640
      H1    -0.74477   -8.68708  -20.18370
       H    -0.74962  -17.20708  -15.58163
       O    -0.23576  -17.83755  -16.19947
      H1    -0.13113  -18.55058  -15.50501
       H    -0.47163  -16.44357  -18.93937
       O    -0.95194  -15.62235  -18.87429
      H1    -1.76186  -16.05852  -18.45769
       H    -5.94167  -17.12047  -17.45249
       O    -5.25853  -17.07271  -18.13683
      H1    -4.51674  -16.56303  -17.71880
       H     2.56966   -9.53909  -17.05890
       O     2.02350   -9.02363  -17.65083
      H1     2.47113   -8.15352  -17.52678
       H    -4.56130  -18.55877  -18.80454
       O    -3.94029  -19.24665  -19.17643
      H1    -3.22268  -19.24375  -18.51624
       H    -4.33156  -10.32992  -18.34316
       O    -4.94569   -9.66767  -17.97201
      H1    -5.06397   -8.97349  -18.62522
       H     4.31460  -14.47657  -16.64969
       O     4.60950  -14.25578  -17.53358
      H1     5.24445  -14.96114  -17.83256
       H     4.54013  -11.25892  -15.90470
       O     4.51744  -10.32194  -15.86298
      H1     3.67148  -10.24430  -15.41155
       H    -2.83710  -18.27102  -12.27939
       O    -3.02922  -17.36149  -12.55631
      H1    -2.56068  -16.74311  -11.94044

