120
frame 0 | Written by MDAnalysis XYZWriter (release 2.4.3)
       H    13.78580    3.22504   -8.45480
       O    14.43299    3.55745   -9.13159
      H1    15.29240    3.05217   -9.12956
       H    12.98347    4.00717   -4.94550
       O    12.73884    3.07115   -5.03646
      H1    12.57016    2.93946   -5.98347
       H    12.66917    6.83413   -4.65964
       O    12.21371    7.62525   -4.84495
      H1    12.78562    8.36080   -4.62666
       H    18.69813    0.29502  -12.18115
       O    18.91934    1.19430  -12.38897
      H1    19.81129    1.32170  -12.01696
       H    14.45735   -1.57555  -10.91453
       O    14.40083   -0.57225  -10.81086
      H1    14.56360   -0.48198   -9.86687
       H    17.38589    6.25538   -8.06879
       O    16.86070    6.20244   -8.90314
      H1    16.41819    7.02573   -8.86481
       H    17.15288   -0.71276  -10.80531
       O    17.92911   -1.23886  -11.23810
      H1    18.50911   -1.40497  -10.42885
       H    10.14443    4.80782   -6.87382
       O    10.11522    4.45001   -5.94724
      H1    10.23571    3.48403   -6.04884
       H    15.82703    3.06357   -4.96186
       O    15.46722    2.35193   -5.54240
      H1    14.51112    2.46414   -5.29768
       H    17.49969    2.23141  -11.44430
       O    16.67481    2.57600  -11.09703
      H1    16.98888    2.88660  -10.20589
       H     9.71073    1.48964  -10.84387
       O    10.11360    2.26127  -11.25524
      H1    10.30655    2.72199  -10.43254
       H    17.53624   -0.47437   -7.55933
       O    16.83634   -1.07949   -7.40825
      H1    16.90853   -1.70186   -8.12159
       H    14.54237    5.37997  -12.91003
       O    14.03131    6.20554  -12.95048
      H1    13.28065    5.90939  -13.51860
       H    17.61056    5.40801  -12.56742
       O    18.49336    5.67555  -12.26219
      H1    18.95631    5.72267  -13.11447
       H    15.29222   -0.41771   -7.55795
       O    14.43252   -0.27552   -7.94236
      H1    13.96259   -0.76179   -7.24910
       H    11.54276    5.57527  -15.10152
       O    11.86217    5.24290  -14.24067
      H1    11.06408    5.20617  -13.74449
       H    19.36756    4.91122   -6.61391
       O    18.65249    5.47601   -6.94785
      H1    18.72537    6.02470   -6.12613
       H    15.01419    4.13162   -6.10459
       O    14.65672    4.97971   -6.33048
      H1    14.76033    4.95017   -7.26019
       H    11.68784    7.70753   -6.85603
       O    11.31480    8.22530   -7.57801
      H1    10.69211    7.52622   -7.86064
       H    16.34848    5.46002   -3.99065
       O    16.11938    4.54188   -3.84725
      H1    15.18835    4.64280   -3.60760
       H    15.87582    1.14772   -4.64061
       O    16.26269    0.50463   -4.01720
      H1    17.19510    0.62804   -4.19703
       H    11.10240    2.18568   -4.99078
       O    10.36594    1.63581   -5.35514
      H1    10.70820    1.15246   -6.07922
       H    15.39299   -3.43204   -9.07745
       O    16.27490   -3.00211   -9.09925
      H1    16.93437   -3.68808   -9.29392
       H    12.16290    1.63806  -11.56481
       O    12.64906    1.15380  -12.20241
      H1    13.26037    0.69627  -11.65361
       H    13.28412    6.00687  -11.44111
       O    12.83961    5.84408  -10.54949
      H1    13.50971    5.22426  -10.16539
       H     8.92594    5.50054   -8.30900
       O     9.65291    6.01079   -8.56467
      H1     9.25144    6.26653   -9.46232
       H    13.36005   -2.83164   -6.37505
       O    12.75960   -2.31515   -6.96542
      H1    12.89310   -2.83002   -7.77348
       H    12.50004    0.30524  -13.65126
       O    12.42996   -0.26279  -14.46962
      H1    13.19992    0.01481  -15.04024
       H    15.24531    0.05719  -14.78218
       O    14.87735   -0.38183  -15.57621
      H1    15.19381   -1.28398  -15.58323
       H    16.23600    9.10951  -12.31764
       O    17.07163    8.68776  -12.51129
      H1    16.94248    7.74787  -12.49344
       H    19.37043    1.12702   -7.60643
       O    18.48691    0.96240   -7.16147
      H1    18.63633    1.40263   -6.33210
       H    19.09407    2.16671   -3.91990
       O    18.76189    1.47428   -4.52636
      H1    19.52806    0.83806   -4.42764
       H    18.35143    1.88647  -14.51649
       O    17.95395    2.74005  -14.72034
      H1    17.53653    2.53386  -15.54604
       H    15.44084   -1.48969   -4.70028
       O    15.41484   -2.32004   -5.24828
      H1    15.83632   -1.93950   -6.02053
       H    10.66687    4.79246   -9.11246
       O    11.03022    3.95577   -9.43268
      H1    11.73426    4.29931  -10.02803
       H    13.91165    9.41309   -9.07402
       O    13.90543    8.94818   -8.20543
      H1    13.00356    8.60127   -8.27695
       H    11.73944    2.91152   -8.39042
       O    12.16408    2.35817   -7.66922
      H1    11.95795    1.47831   -7.97479
       H    17.38049    4.07206   -7.91492
       O    17.24572    3.23766   -8.31564
      H1    17.62498    2.62828   -7.61135
       H    16.14232    1.49921  -12.70016
       O    15.70570    0.86449  -13.28635
      H1    15.05350    0.55384  -12.60401
       H    16.05785    4.14059  -13.89554
       O    16.09074    4.45375  -12.98859
      H1    16.24298    3.64335  -12.40026

