120
frame 11 | Written by MDAnalysis XYZWriter (release 2.4.3)
       H   -12.32147   -8.46099   17.28530
       O   -13.20138   -8.39928   17.76258
      H1   -13.11975   -7.55335   18.20817
       H    -8.04906   -8.54210    9.22382
       O    -8.97398   -8.45142    8.83358
      H1    -9.24877   -9.39696    8.71602
       H    -4.05309   -3.22588   11.65053
       O    -4.29555   -2.42732   12.11349
      H1    -3.43486   -1.90233   12.10177
       H   -10.81436   -4.71606   18.67766
       O   -11.25536   -5.29926   19.35995
      H1   -10.74576   -6.18475   19.46155
       H   -10.05855   -8.03533   16.95944
       O   -10.31119   -8.74484   16.35689
      H1    -9.89604   -8.76630   15.51140
       H    -7.97366  -10.86963   11.60239
       O    -7.53687  -10.94455   12.46170
      H1    -6.58850  -10.80985   12.22784
       H   -10.33312   -8.57102   11.49164
       O   -10.36769   -9.50759   11.79904
      H1   -11.13057   -9.83733   11.25264
       H    -3.99614   -5.63893   11.56296
       O    -3.77907   -4.88404   10.99202
      H1    -4.35195   -4.99017   10.17880
       H    -8.08155  -12.71112   13.32726
       O    -8.75230  -13.30888   13.82228
      H1    -9.33895  -12.71486   14.31320
       H    -6.59388   -4.44137   12.20987
       O    -6.70301   -4.44940   13.15346
      H1    -5.83541   -4.23585   13.60112
       H    -5.05279  -12.25406   18.26741
       O    -5.03646  -12.77415   17.42840
      H1    -4.20181  -12.44925   17.05381
       H   -12.49557   -9.96664   14.26365
       O   -12.15764  -10.60650   13.60549
      H1   -11.54577  -10.07847   13.08696
       H    -8.43312   -3.63653   10.31904
       O    -7.50737   -3.87321   10.48547
      H1    -7.26108   -4.57820    9.81415
       H    -6.17634   -8.29707   15.87749
       O    -6.42413   -7.33614   15.88475
      H1    -7.00412   -7.24481   15.14695
       H    -3.16559  -10.92173   15.78925
       O    -3.36265  -10.16219   15.19232
      H1    -2.49878  -10.07796   14.74616
       H    -0.53575   -6.89442   17.56399
       O    -1.05630   -7.70906   17.32627
      H1    -0.77128   -8.06558   16.48240
       H    -5.76932   -8.44680   10.00246
       O    -6.35735   -8.58891    9.24822
      H1    -5.81013   -8.95257    8.57927
       H    -5.09846   -7.86377   17.99264
       O    -5.32270   -8.70925   18.35828
      H1    -5.96449   -9.10629   17.83224
       H    -9.63826   -7.34998    9.87880
       O   -10.08316   -6.86738   10.63232
      H1    -9.46364   -6.17619   10.73568
       H    -3.69100  -11.19712   12.62272
       O    -4.62023  -11.01722   12.85946
      H1    -4.62764  -10.69180   13.83252
       H   -11.20494  -11.62278   14.61646
       O   -10.76555  -12.19227   15.23267
      H1   -10.69103  -11.76302   16.07158
       H    -2.16785   -9.10777   18.20249
       O    -2.70932   -9.41086   18.97803
      H1    -3.64268   -9.26235   18.69006
       H    -4.51752   -2.76421   13.89993
       O    -4.55166   -3.19930   14.77453
      H1    -5.39517   -2.91365   15.14709
       H    -7.87200   -5.43468   13.82017
       O    -8.49420   -6.13264   14.23202
      H1    -9.07613   -5.58571   14.76457
       H    -6.75109  -11.10534   15.80781
       O    -6.76503  -10.14563   15.95898
      H1    -7.41921   -9.71565   15.39691
       H   -12.61890   -5.09284   13.78900
       O   -12.05197   -4.37786   13.41890
      H1   -11.15040   -4.64710   13.68456
       H    -5.93913   -5.49984    8.25506
       O    -5.91242   -5.72884    9.18433
      H1    -6.23165   -6.64375    9.25693
       H    -4.40490   -9.49893   11.46160
       O    -4.24202   -8.68207   10.99402
      H1    -4.41156   -7.99978   11.66534
       H    -9.69835   -3.03977   17.31528
       O   -10.02913   -3.96145   17.26171
      H1   -10.71436   -3.83781   16.63961
       H    -8.46560   -8.02976   14.08797
       O    -8.62708   -8.94799   14.23615
      H1    -8.22884   -9.35190   13.46178
       H    -8.75997   -5.31143   17.10558
       O    -8.18289   -5.99708   17.49881
      H1    -7.59442   -6.33800   16.81981
       H    -9.78679   -8.33949   19.73202
       O    -9.91561   -7.67747   18.98405
      H1    -9.07995   -7.21138   18.78764
       H    -8.31224   -2.73572   15.13793
       O    -7.70422   -2.78106   15.92143
      H1    -8.17646   -2.39682   16.67942
       H    -6.54075   -4.80202   17.89964
       O    -5.98011   -4.00233   18.06728
      H1    -6.39584   -3.33427   17.51433
       H    -6.41986  -12.97190   16.36417
       O    -7.39712  -13.04305   16.29106
      H1    -7.53084  -13.28798   15.37870
       H    -8.35260   -3.55442   13.12332
       O    -9.04719   -3.13077   13.68200
      H1    -9.66801   -2.62371   13.12959
       H    -3.57128   -6.84491   16.03568
       O    -3.38384   -7.25436   15.14752
      H1    -3.31171   -8.25170   15.22967
       H    -3.37863   -5.37093   17.59919
       O    -4.04131   -6.05267   17.48441
      H1    -4.83188   -5.58550   17.19687
       H    -5.11543   -6.07899   13.05477
       O    -4.81272   -7.00284   13.00015
      H1    -4.32456   -7.16231   13.80404
       H   -10.03466  -10.43182   17.43685
       O    -9.98528  -11.37989   17.69005
      H1    -9.12943  -11.68035   17.31891

