120
frame 0 | Written by MDAnalysis XYZWriter (release 2.4.3)
       H   -14.96674   14.72064    4.70422
       O   -14.19833   15.09385    5.18236
      H1   -13.61365   15.04607    4.43560
       H    -3.22773   13.74017    5.77063
       O    -3.80678   13.10763    5.32233
      H1    -4.23443   12.65249    6.03019
       H    -5.39063   16.48463    6.45298
       O    -4.85088   15.71034    6.60709
      H1    -5.15222   15.11628    5.79817
       H   -11.56473   10.10209    0.52765
       O   -11.98388   10.75312    1.10192
      H1   -12.55527   11.27967    0.49550
       H    -9.55972   12.37988    9.16662
       O    -9.13968   11.55244    8.87861
      H1    -9.88151   10.98553    8.93497
       H    -7.36875   16.21716    2.24540
       O    -6.46966   16.22779    2.59761
      H1    -6.26416   17.15854    2.62008
       H    -9.80555   17.59488    8.35266
       O    -9.53437   16.69744    8.64629
      H1   -10.30979   16.32332    9.09202
       H    -5.07082    7.51833    1.99718
       O    -4.75947    8.32121    1.67520
      H1    -4.86628    8.96357    2.46728
       H   -11.06854   13.77131   10.13608
       O   -10.73635   13.67589    9.26136
      H1   -11.48688   13.54151    8.70499
       H    -5.23978   12.29684    0.09743
       O    -5.64245   12.40833   -0.76817
      H1    -6.41591   11.82219   -0.71848
       H   -11.20518   13.87488   -2.56779
       O   -10.30834   14.18054   -2.47900
      H1    -9.94629   13.38096   -2.08944
       H    -9.05718   14.97139    3.49340
       O    -9.12573   14.09243    3.12534
      H1    -8.39999   13.63331    3.53167
       H    -6.75362   14.77938    9.08745
       O    -6.60683   14.24358    8.29012
      H1    -6.01849   14.81550    7.81801
       H    -7.88028    9.92678    0.32760
       O    -8.16193   10.89643    0.22047
      H1    -8.60133   11.05264    1.04697
       H    -8.93087   15.51335    7.18916
       O    -8.33709   15.24243    6.43977
      H1    -7.61598   14.71018    6.87199
       H    -8.19338    8.40150    3.87376
       O    -9.12946    8.56468    3.81914
      H1    -9.18558    9.34774    3.23271
       H    -6.00615    8.71120    5.08299
       O    -6.28910    8.50788    4.15058
      H1    -6.39812    9.39380    3.72664
       H    -3.18942   15.90948    3.28673
       O    -3.04879   14.97091    2.89900
      H1    -3.71466   14.95184    2.22220
       H    -5.42827   11.11336    7.70186
       O    -5.01710   11.98349    7.71352
      H1    -5.69326   12.60968    7.88926
       H    -9.47634   11.91526    2.79809
       O    -9.58741   11.01771    2.40167
      H1   -10.43559   11.09340    1.84737
       H    -7.30117   16.53188    5.95605
       O    -6.79984   17.31835    5.77801
      H1    -7.19502   17.91384    6.48847
       H   -12.32377   15.36874    2.40953
       O   -12.14359   15.70640    3.29110
      H1   -12.80846   16.48438    3.22638
       H    -6.90082   12.92281    4.85209
       O    -6.96720   11.99864    4.52540
      H1    -7.76218   11.56204    5.06936
       H   -12.37600   11.78711    6.11440
       O   -12.66625   10.84896    6.25821
      H1   -12.57792   10.44164    5.35698
       H    -5.15028   14.03749    4.47447
       O    -5.98716   14.49615    4.53440
      H1    -5.98077   15.04020    3.73276
       H   -13.00636   10.00434    2.93468
       O   -12.98313    9.41440    3.68648
      H1   -12.54616    8.64223    3.24295
       H    -9.00547   12.02308    7.04195
       O    -9.27453   12.17592    6.12831
      H1    -9.76498   11.37299    6.02545
       H    -9.55877   15.84186    4.89635
       O    -9.55529   16.44525    4.13880
      H1   -10.43360   16.23977    3.74633
       H   -10.68748   15.24646   -1.12729
       O   -11.17493   15.50186   -0.32983
      H1   -11.05514   16.45390   -0.46551
       H    -3.55418   11.59750    2.04922
       O    -3.86946   12.17766    1.30083
      H1    -2.98748   12.40229    0.91398
       H    -9.77781   19.15265    1.95267
       O   -10.60229   19.36635    2.36251
      H1   -10.37532   19.69455    3.24913
       H    -5.63239   15.76184    1.05643
       O    -5.06560   15.43015    0.35885
      H1    -5.61037   14.69095   -0.03836
       H   -13.88492   13.22690    1.40166
       O   -13.72615   12.75068    2.18849
      H1   -12.76411   12.57467    2.16235
       H    -9.55664    9.22460    5.25795
       O    -9.85717    9.50921    6.14362
      H1    -9.43956    8.87924    6.76443
       H    -7.89351   18.55388    4.91885
       O    -8.39366   19.02707    4.19732
      H1    -8.86815   18.17268    4.01911
       H   -10.30690   18.70483    5.18607
       O   -11.21420   18.88321    5.40463
      H1   -11.68910   18.02969    5.39970
       H    -9.59967   15.70642    0.67860
       O    -8.64531   15.53258    0.90549
      H1    -8.77415   14.86252    1.63888
       H   -14.48634   15.22178   -0.29677
       O   -13.85818   14.98951    0.37605
      H1   -12.99713   15.12422   -0.04865
       H    -4.01659   11.04998    4.13611
       O    -3.86635   10.31613    3.54913
      H1    -2.97012    9.98930    3.72760
       H   -12.74995   13.67593    5.87761
       O   -12.09796   13.39504    6.55377
      H1   -11.28115   13.30720    6.08999

