120
frame 1 | Written by MDAnalysis XYZWriter (release 2.4.3)
       H     7.97019    5.11754   -8.91606
       O     8.86923    5.04474   -8.54920
      H1     8.84994    4.25578   -7.97106
       H     9.57358    7.40851  -11.20187
       O     9.65873    8.01550  -10.49759
      H1     9.96299    7.46150   -9.74861
       H     3.22627    3.05165  -10.64918
       O     3.82344    2.27055  -10.62910
      H1     4.41014    2.38946   -9.85870
       H     1.34380    3.36420   -7.88791
       O     0.85959    4.17062   -7.59791
      H1     0.38030    4.38499   -8.43491
       H     4.80842   11.85971  -11.28129
       O     4.77756   10.92918  -11.55301
      H1     3.83780   10.73889  -11.45630
       H    -0.46120    6.01621  -14.11959
       O    -0.72048    5.10358  -14.19846
      H1    -0.84694    4.99754  -13.27639
       H     4.01536    7.18957   -6.03911
       O     3.28869    7.76899   -6.26685
      H1     2.69262    7.85344   -5.48447
       H     0.33452    7.42818   -9.70411
       O     0.26865    6.68502  -10.33634
      H1     0.99456    6.09641  -10.03704
       H     1.66704    3.37973  -14.54044
       O     2.02643    3.20843  -13.68080
      H1     1.25659    3.08132  -13.11552
       H     4.06162    7.87898  -11.58489
       O     4.97947    7.91115  -11.25863
      H1     5.12857    8.77865  -11.05380
       H     6.10534    8.32605  -14.38791
       O     6.67442    7.93127  -15.09528
      H1     6.57221    8.59361  -15.82483
       H     9.53426    5.88510  -13.49680
       O     9.69247    6.62005  -12.90504
      H1     9.58926    7.39367  -13.47858
       H     3.22519    5.06776   -9.80844
       O     2.65044    4.74578  -10.50350
      H1     2.83410    5.28707  -11.29270
       H     5.48453    7.03175  -16.76909
       O     4.60924    6.62741  -16.86718
      H1     4.04718    7.38465  -16.66946
       H     5.66281    2.45102  -11.16170
       O     6.21585    2.43881  -11.93640
      H1     7.07338    2.68949  -11.50987
       H     6.49197    6.40733   -9.24070
       O     6.66662    5.64597   -9.87944
      H1     6.90000    6.03138  -10.76815
       H     0.16719   11.70309  -11.23454
       O    -0.76613   11.54022  -11.49396
      H1    -0.87083   12.19605  -12.23777
       H     0.75494    7.13811  -11.98669
       O     0.87129    7.23666  -12.90426
      H1     1.76155    6.83920  -13.10813
       H     1.24692   10.41964   -9.96801
       O     1.84964   11.00619  -10.43892
      H1     1.92295   11.79837   -9.93596
       H     8.24946   12.85057   -9.64861
       O     7.41607   12.38191   -9.93261
      H1     6.91107   13.00070  -10.48079
       H     1.37575    8.52870  -16.69174
       O     2.29448    8.71801  -16.92909
      H1     2.70504    9.22016  -16.17861
       H     4.13803    9.92123  -14.63303
       O     3.23043   10.13169  -14.96127
      H1     2.62922   10.01267  -14.21421
       H    -1.74939    6.60216  -10.28721
       O    -2.53420    7.06360  -10.60435
      H1    -2.17909    7.55882  -11.37642
       H     3.28557   12.93559  -16.44253
       O     3.62102   12.83322  -15.55992
      H1     3.53907   11.87590  -15.34600
       H     8.53804    7.77578   -5.71041
       O     7.96230    8.40748   -6.17582
      H1     7.38753    7.92954   -6.77003
       H     5.27996    6.61413   -7.83777
       O     5.83845    7.41755   -7.80780
      H1     5.20834    8.20134   -7.73953
       H     6.19355   10.55643   -9.00055
       O     5.28562   10.34267   -8.64835
      H1     4.76570   10.35779   -9.48947
       H     8.95870    9.36666  -15.03029
       O     9.52161    9.29425  -14.24931
      H1     9.00734    9.60300  -13.51655
       H     8.58139    9.57891  -10.90053
       O     8.21669   10.24289  -11.51822
      H1     7.88097   10.99518  -10.99188
       H     3.68347    7.76020   -9.68939
       O     2.92580    7.60581   -9.11659
      H1     3.30882    7.38486   -8.26104
       H     2.67060   13.73762  -13.84690
       O     2.38876   13.73771  -12.88489
      H1     1.50846   13.27407  -12.89422
       H     6.49762   10.45121  -14.02889
       O     5.65493   10.02232  -13.86704
      H1     5.29281   10.48839  -13.06197
       H     5.74281    6.01364  -14.82723
       O     5.61811    5.06799  -14.61571
      H1     6.01730    5.01822  -13.73783
       H     5.97350   13.24925   -7.73387
       O     5.35678   12.84209   -7.14765
      H1     5.27513   11.95480   -7.50983
       H     7.76535    6.36898  -12.78123
       O     6.86899    6.11278  -12.50432
      H1     6.42498    6.95544  -12.20648
       H    -0.77802    8.59105  -12.81412
       O    -1.74143    8.71489  -12.57090
      H1    -1.81733    9.67807  -12.32392
       H     1.92452   10.08338  -11.84744
       O     2.19502    9.45420  -12.54825
      H1     1.49361    8.71551  -12.57021
       H     0.13513    9.05607   -8.13380
       O     0.41183    8.98927   -9.06749
      H1     1.29347    8.57742   -9.03177
       H     4.16357    4.22494   -7.83159
       O     3.79167    5.11283   -7.75333
      H1     2.85297    4.99756   -7.52907
       H     2.67797    4.91611  -13.25199
       O     3.17961    5.71600  -13.18592
      H1     4.05697    5.53101  -13.55048

