120
frame 1 | Written by MDAnalysis XYZWriter (release 2.4.3)
       H   -12.71404    6.97439   14.83104
       O   -12.09603    6.86597   15.59432
      H1   -11.82877    7.75254   15.83917
       H   -15.90037    3.74083   19.45651
       O   -15.90213    2.82144   19.13364
      H1   -16.39816    2.77944   18.28625
       H   -16.95040   -0.28499   11.73553
       O   -16.30989   -0.00538   12.37935
      H1   -16.81983    0.21216   13.19154
       H   -10.98007   -2.86353   16.18008
       O   -11.28475   -1.96488   16.38501
      H1   -10.54792   -1.35498   16.40068
       H   -17.72356    3.48008   16.52321
       O   -17.05232    2.80786   16.68600
      H1   -16.26110    3.38204   16.58962
       H   -10.24427    4.40388   14.38683
       O   -10.33191    5.23850   13.91253
      H1   -10.87862    5.80293   14.49050
       H    -9.79440    4.72309   17.95446
       O   -10.82273    4.79433   18.12852
      H1   -10.93616    4.48519   19.04336
       H   -10.08735    2.22202   16.19625
       O   -10.57283    3.07511   15.99023
      H1   -10.61677    3.56029   16.83287
       H   -11.22236   -5.24958   15.98530
       O   -10.99163   -4.60628   16.65222
      H1   -11.80032   -4.53762   17.21774
       H   -14.83727    7.73673   13.74495
       O   -14.27449    6.94035   13.48478
      H1   -14.66005    6.69689   12.59256
       H   -14.20457    3.23845   16.39743
       O   -14.84075    3.95224   16.18252
      H1   -14.35510    4.65519   16.64186
       H   -18.52138    6.46738   17.90197
       O   -17.63499    6.51700   17.57344
      H1   -17.50980    7.39467   17.18902
       H    -9.52985   -1.42114   19.24426
       O   -10.15062   -2.18597   19.43530
      H1   -10.56283   -2.40223   18.57226
       H    -8.82261    2.40085   13.97435
       O    -8.01307    2.77989   13.57942
      H1    -7.40752    2.10905   14.00865
       H   -13.39432    8.58774   19.03020
       O   -12.43415    8.43147   18.83257
      H1   -12.40779    7.62273   18.29186
       H   -14.50345    1.76516   19.03111
       O   -13.89498    1.01916   18.92365
      H1   -14.51717    0.32012   19.28818
       H   -11.21670    1.48700   13.28472
       O   -10.74798    0.97246   13.91281
      H1   -10.40018    0.17165   13.44709
       H   -16.55180    1.78733   15.53471
       O   -16.49541    0.99276   14.93034
      H1   -15.69823    0.54256   15.26458
       H   -13.55426   -2.49577   18.93994
       O   -13.23058   -2.56895   19.87837
      H1   -12.61034   -1.82325   19.77291
       H   -10.05589    7.62261   19.01372
       O    -9.84979    8.21538   19.75004
      H1    -8.87451    8.02372   19.80603
       H   -18.00076    0.47062   17.41214
       O   -18.64809   -0.06395   17.86506
      H1   -18.37845   -0.89645   17.50439
       H   -17.64999    5.32079   14.93117
       O   -18.54818    5.15004   15.24040
      H1   -18.62027    5.72656   16.00097
       H   -13.60603   -0.65689   14.72137
       O   -14.00769   -0.50215   15.58994
      H1   -13.53225    0.21246   15.98072
       H   -15.53018    4.22551   10.75490
       O   -15.84041    3.50354   11.34005
      H1   -16.12961    3.91361   12.15051
       H    -8.41203    0.47309   15.79935
       O    -9.24613    0.11998   16.13302
      H1    -9.81014    0.52328   15.46188
       H   -15.33996    8.72649   19.73952
       O   -15.02192    8.73967   18.83557
      H1   -14.97317    7.78937   18.67224
       H    -7.91197    4.48923   18.93809
       O    -7.90247    4.45153   17.95348
      H1    -6.93386    4.55185   17.87280
       H   -15.41610    5.55140   13.62770
       O   -16.06375    4.96392   14.07411
      H1   -15.51491    4.53094   14.73210
       H   -13.39353    5.37655   18.31641
       O   -13.61923    6.00066   17.64718
      H1   -12.88910    6.09883   16.97546
       H    -8.81795   -0.28061   17.88182
       O    -8.52151   -0.26644   18.80136
      H1    -7.83495   -0.97664   18.87629
       H   -14.20569   -2.39800   15.04117
       O   -14.39738   -3.31903   14.91173
      H1   -13.70043   -3.71551   15.48681
       H    -7.39533    0.86274   18.28717
       O    -6.94155    1.78407   18.13860
      H1    -7.65757    2.33744   17.79785
       H   -15.33875   -2.48006   17.00475
       O   -14.82225   -2.01861   17.69900
      H1   -14.36343   -1.32231   17.16827
       H   -13.95690    0.91625   11.85457
       O   -14.03439    1.42994   11.09457
      H1   -14.90680    1.79085   11.13528
       H   -12.45282    2.29235   11.40021
       O   -11.65890    2.65646   11.82481
      H1   -11.99274    3.46372   12.20679
       H    -6.32147    1.23009   16.04045
       O    -6.83837    1.10449   15.18474
      H1    -6.48133    0.24138   14.99088
       H   -13.24718   -1.63681   12.50543
       O   -13.56863   -0.99740   13.15206
      H1   -14.42792   -0.80633   12.77483
       H    -7.98666    6.18168   17.19469
       O    -8.57552    6.82879   16.72843
      H1    -8.28579    7.66896   17.12817
       H   -19.29505   -2.44580   16.58706
       O   -18.31224   -2.45032   16.51326
      H1   -18.11784   -2.97574   17.34215
       H   -13.16179    1.72083   17.52911
       O   -13.04517    2.07007   16.62027
      H1   -12.07319    2.17734   16.50714

