120
frame 0 | Written by MDAnalysis XYZWriter (release 2.4.3)
       H    15.89665   -0.16230   10.42475
       O    16.71672    0.07538    9.97518
      H1    17.35349   -0.61666   10.08497
       H    14.49603   -0.43013    7.91860
       O    15.39885   -0.38914    7.59335
      H1    15.90079   -0.17785    8.39771
       H    11.91091   -4.81068   13.90498
       O    12.55315   -4.72527   14.59216
      H1    11.97006   -4.60325   15.39381
       H    17.83141  -10.34292   11.15641
       O    18.62095   -9.96438   11.62415
      H1    18.93081   -9.30702   11.00534
       H    12.89465  -10.83061   10.82658
       O    12.26272  -11.53168   10.91588
      H1    11.46912  -11.12430   10.47486
       H    13.43639   -3.95992    2.99948
       O    13.07453   -3.06991    2.88482
      H1    12.32771   -3.31307    2.29821
       H    18.64155   -0.79622    6.48784
       O    19.42513   -0.25816    6.68736
      H1    19.55173   -0.46013    7.60208
       H    12.67181   -5.51843    5.13863
       O    12.53446   -6.28322    5.70872
      H1    11.60738   -6.41258    5.60799
       H    11.35586   -0.81274   11.80895
       O    11.69839   -0.79891   10.91682
      H1    12.54891   -1.12094   11.24273
       H    10.55705   -6.22882   11.60736
       O    10.41263   -5.60189   12.38135
      H1     9.52014   -5.29161   12.23108
       H    15.19771   -6.22482    7.00156
       O    14.99669   -5.55206    7.65627
      H1    14.23374   -5.93079    8.13916
       H    16.96093   -5.27256   13.03648
       O    16.71322   -4.72357   12.28060
      H1    17.06617   -3.87155   12.63125
       H    16.96034   -7.29372   12.56590
       O    16.90153   -7.46942   13.51514
      H1    16.00697   -7.72893   13.52787
       H    14.58714   -0.40378   12.20647
       O    14.38077   -1.14134   11.61099
      H1    15.06390   -1.80410   11.92766
       H    17.72377  -10.68046    8.40934
       O    17.45683   -9.98085    7.76363
      H1    17.32908   -9.23892    8.43317
       H    16.35415  -11.71930   13.71839
       O    17.29089  -11.56304   13.83051
      H1    17.54657  -10.88970   13.21881
       H    15.55636   -8.01088    5.12247
       O    15.80721   -7.25252    5.65724
      H1    16.72532   -7.27528    5.87824
       H    17.22321   -5.01610    7.10391
       O    18.11342   -5.36028    7.48029
      H1    18.61069   -5.28522    6.64039
       H    18.83823  -12.49715   10.32038
       O    18.83883  -12.44345    9.32817
      H1    19.69851  -11.93641    9.20119
       H    12.31405   -8.81982    7.63575
       O    11.59872   -8.61276    6.99335
      H1    12.15457   -8.06723    6.42649
       H    15.85740   -6.39471   15.58349
       O    16.37611   -5.79084   16.20748
      H1    17.35007   -6.08052   16.19269
       H    11.08221   -2.18186    9.74864
       O    11.10939   -2.89703    9.08879
      H1    10.95416   -2.48508    8.25939
       H    16.07154   -6.49927    8.90237
       O    16.29627   -7.41691    9.10354
      H1    16.79558   -7.31944    9.88119
       H    16.52328   -1.49240    5.19083
       O    17.14404   -1.79156    5.89877
      H1    16.63501   -1.55573    6.68565
       H    19.44596   -1.46334   10.08242
       O    18.61441   -1.93805   10.03699
      H1    18.69086   -2.49612    9.25374
       H    17.57139   -7.87088    3.59662
       O    17.96112   -7.22661    4.12897
      H1    18.27260   -6.58020    3.47027
       H    17.70046   -5.69938   11.22262
       O    18.15024   -6.54990   10.97602
      H1    18.49038   -6.33504   10.09726
       H    16.01190  -11.52878   10.47499
       O    16.16831  -10.53818   10.43393
      H1    15.36479  -10.25132   10.91783
       H    11.22647   -6.62041    9.45469
       O    10.85172   -7.22855   10.14229
      H1    10.36648   -7.86970    9.61086
       H    13.75446   -9.19698    9.94498
       O    13.63236   -9.27550   10.89976
      H1    13.49600   -8.34076   11.22541
       H    13.68157   -7.70707   14.92996
       O    14.47251   -7.13435   14.81761
      H1    14.18208   -6.28401   14.50980
       H    12.48155   -3.16347    4.47840
       O    12.12588   -3.46610    5.37962
      H1    12.95597   -3.16798    5.88169
       H    18.74128   -2.68110   13.18445
       O    17.82861   -2.52617   13.35267
      H1    17.74436   -2.52453   14.33965
       H    11.99186   -4.51715    8.73941
       O    12.20235   -5.38874    8.49415
      H1    12.27924   -5.24862    7.52706
       H    16.31546  -13.29816    9.09209
       O    15.83287  -13.13028    9.94757
      H1    16.30559  -13.62803   10.61517
       H    17.20394  -10.32562    6.14471
       O    17.38326  -10.29839    5.16572
      H1    17.21006  -11.23369    4.92905
       H    14.18950  -10.83888    4.93122
       O    14.65183  -10.23368    5.50780
      H1    15.54337  -10.26523    5.15870
       H    14.95818   -4.90121    4.89218
       O    14.83735   -5.27715    3.94932
      H1    15.16936   -6.17743    4.17367
       H    14.16575   -9.44473    7.20056
       O    14.13777   -9.14310    8.08924
      H1    14.96919   -8.71980    8.20077
       H    15.87140   -3.12138    6.16543
       O    14.98296   -3.46887    6.09040
      H1    14.97508   -4.01609    6.86180

