120
frame 0 | Written by MDAnalysis XYZWriter (release 2.4.3)
       H   -17.44481    5.51037   -5.07341
       O   -17.25433    6.05378   -4.27762
      H1   -16.29670    5.91940   -4.09467
       H   -13.32260    4.67752   -7.44458
       O   -13.58158    5.61324   -7.36678
      H1   -13.98226    5.86561   -8.21040
       H   -12.46922    8.70330   -3.25641
       O   -12.03956    7.99491   -2.74377
      H1   -11.57873    7.58322   -3.44869
       H   -11.56473   10.10209    0.52765
       O   -11.98388   10.75312    1.10192
      H1   -12.55527   11.27967    0.49550
       H   -14.17755    6.94405   -4.22125
       O   -14.02003    5.94736   -4.27615
      H1   -13.85534    5.68487   -5.22959
       H    -9.26418    7.87809   -7.21768
       O    -8.60029    7.54176   -6.60614
      H1    -8.88816    6.62385   -6.44380
       H    -7.56514    4.75213   -1.23501
       O    -6.54730    4.75361   -1.12812
      H1    -6.34517    5.32064   -1.95426
       H   -11.20518   13.87488   -2.56779
       O   -10.30834   14.18054   -2.47900
      H1    -9.94629   13.38096   -2.08944
       H    -6.43035    8.41813    0.83939
       O    -7.28179    8.29223    0.41451
      H1    -7.69698    7.64960    0.95182
       H   -10.38947    8.20587    0.23045
       O   -10.50469    8.92173   -0.41117
      H1   -10.96040    8.57800   -1.17356
       H   -10.48556   10.53013   -1.49432
       O   -10.74473   11.21089   -2.17244
      H1    -9.97362   11.16019   -2.83619
       H   -11.83520    6.51732    3.07307
       O   -11.69154    7.17626    2.32287
      H1   -12.19638    6.69856    1.63002
       H   -12.23910   10.00506   -6.53968
       O   -12.03984    9.08710   -6.25432
      H1   -11.22896    9.23738   -5.77320
       H    -7.88028    9.92678    0.32760
       O    -8.16193   10.89643    0.22047
      H1    -8.60133   11.05264    1.04697
       H   -16.76022    9.02182   -1.61344
       O   -15.81289    8.89137   -1.96703
      H1   -15.91655    9.03886   -2.90984
       H   -16.20991    8.12905   -7.40418
       O   -16.30747    8.72835   -6.65162
      H1   -17.15326    8.31238   -6.34205
       H    -9.69989    6.42490    2.16177
       O    -8.87258    6.38469    1.67809
      H1    -8.90870    5.48891    1.29146
       H    -8.14178   10.65717   -4.53990
       O    -8.19896   11.25037   -3.76155
      H1    -7.23093   11.18810   -3.44997
       H    -9.47634   11.91526    2.79809
       O    -9.58741   11.01771    2.40167
      H1   -10.43559   11.09340    1.84737
       H   -13.43407    4.04141   -3.97003
       O   -13.10427    3.15901   -3.83065
      H1   -12.37311    3.17377   -4.54665
       H   -14.78237    8.75378   -0.70303
       O   -13.92546    8.81952   -0.17759
      H1   -14.25495    8.98310    0.72123
       H   -15.49731   12.12528   -0.42229
       O   -16.00468   12.77939    0.04911
      H1   -16.09031   13.46514   -0.64645
       H   -16.10937    4.29857    1.15240
       O   -15.13989    4.23632    1.04830
      H1   -14.88890    5.17726    1.08727
       H   -11.58141    6.33029   -6.18208
       O   -10.84783    5.77585   -5.98773
      H1   -10.76453    5.92534   -5.04471
       H    -8.50879    3.11803   -1.42023
       O    -9.01915    3.91431   -1.02147
      H1    -9.52233    4.16008   -1.82262
       H    -9.08265    8.37648   -5.30325
       O    -9.70742    8.94547   -4.74285
      H1    -9.43065    8.65098   -3.83297
       H   -10.73390    9.16679   -7.99302
       O    -9.88855    8.95764   -8.40953
      H1    -9.57923    9.77875   -8.79726
       H    -7.74468    7.63395   -2.39637
       O    -8.68287    7.65375   -2.38601
      H1    -8.87301    7.85365   -1.45892
       H   -13.01326    5.91649   -0.31212
       O   -13.36534    6.34810    0.44913
      H1   -13.48436    7.29995    0.09711
       H   -14.94715   11.55278   -5.09899
       O   -14.80872   11.42470   -4.14291
      H1   -14.47894   10.50884   -4.05362
       H   -13.52844    8.80602   -5.33178
       O   -14.31383    8.83513   -4.79763
      H1   -15.03446    8.76059   -5.51341
       H   -12.32358   12.45027   -7.19936
       O   -12.52474   11.52480   -7.40030
      H1   -13.50611   11.53505   -7.10673
       H   -12.76236    4.06780   -2.21240
       O   -12.62225    4.98234   -2.01105
      H1   -13.20241    5.42924   -2.59787
       H   -15.25615    4.44986   -0.88527
       O   -15.90835    4.68532   -1.56588
      H1   -15.81360    4.05661   -2.28800
       H   -17.84113   11.31354   -3.60430
       O   -17.25094   11.85841   -3.02661
      H1   -16.37244   11.73213   -3.28752
       H   -11.04320    5.23185   -2.90344
       O   -10.31057    5.63890   -3.35206
      H1    -9.88044    6.28148   -2.76033
       H    -6.03601    9.25785   -5.94227
       O    -6.88506    9.80474   -6.00663
      H1    -7.52346    9.12362   -5.69223
       H   -13.55465   10.43677   -0.74234
       O   -13.80209   11.37967   -0.78361
      H1   -13.50569   11.69128   -1.63619
       H   -10.23101    3.32279   -5.47934
       O   -11.15870    3.25209   -5.72728
      H1   -11.29830    4.21510   -5.95123
       H   -13.43717   14.22743   -4.01785
       O   -12.78123   13.51628   -3.81848
      H1   -13.44667   12.87845   -3.71858

