120
frame 0 | Written by MDAnalysis XYZWriter (release 2.4.3)
       H    14.17976  -16.81157    2.70103
       O    14.89097  -16.20582    2.34138
      H1    14.51360  -15.40172    2.74247
       H    11.57653  -13.17340   -4.22231
       O    10.76888  -13.20212   -4.74891
      H1    10.87376  -12.43933   -5.29914
       H    10.34647  -15.52530   -2.71313
       O    10.73512  -15.66302   -1.87425
      H1    11.01453  -16.57268   -1.93084
       H     8.21954   -8.53123   -1.29095
       O     8.94569   -8.99006   -0.72680
      H1     8.52115   -9.88560   -0.55162
       H     9.88250   -7.66790    1.87443
       O    10.32944   -8.13967    2.57329
      H1    11.10652   -8.35708    1.95713
       H     5.73250  -14.80019   -4.18527
       O     5.03164  -14.16858   -4.29330
      H1     5.51500  -13.33709   -4.41482
       H     8.00473  -13.21209    2.37071
       O     8.95168  -12.93408    2.52046
      H1     8.92967  -11.91518    2.75436
       H    11.18199  -12.81243    2.47446
       O    11.90621  -12.20230    2.33608
      H1    11.50726  -11.50323    2.91499
       H    12.19611  -19.12436   -2.58506
       O    12.05092  -18.25108   -2.15702
      H1    12.88333  -17.80694   -2.35967
       H     9.38931   -9.57464    2.85296
       O     8.87315  -10.35323    3.08870
      H1     8.08924  -10.17005    3.58534
       H    11.62788  -11.62285    0.46699
       O    11.83348  -11.16597   -0.36369
      H1    11.16248  -11.50923   -0.97689
       H    12.97520   -8.75717   -4.20585
       O    13.67927   -9.13258   -3.58292
      H1    13.24306   -9.99878   -3.39098
       H    12.60131   -8.05385   -0.71456
       O    12.65359   -7.44546   -1.48055
      H1    13.08127   -8.02688   -2.12350
       H     9.50566  -15.84651   -5.01057
       O    10.43083  -16.01555   -5.25274
      H1    10.96539  -15.21455   -5.05122
       H    10.76764  -16.86303    0.76720
       O    10.40584  -16.06338    1.22450
      H1    10.32641  -15.36082    0.54225
       H     7.89025  -16.41252   -3.86365
       O     7.72131  -15.83803   -4.65379
      H1     7.25609  -16.50745   -5.29238
       H     4.11195  -15.33569   -0.76646
       O     4.89289  -15.57613   -0.24329
      H1     5.39627  -14.78378    0.01075
       H     9.57276  -16.71206    2.95720
       O     8.83247  -17.28262    3.12767
      H1     8.38988  -17.33174    2.30737
       H    13.47141  -13.11585    2.89283
       O    14.21380  -13.64162    3.19121
      H1    14.04032  -13.99795    4.09341
       H     7.42898  -17.04596   -0.75208
       O     7.46844  -16.46155   -1.48038
      H1     6.81639  -15.83084   -1.19042
       H    13.55610   -9.18496    1.32640
       O    12.67342   -8.89097    0.96380
      H1    12.41499   -9.68499    0.50341
       H    13.78740  -12.59114   -3.35982
       O    12.85357  -12.27222   -3.33278
      H1    12.60815  -12.56722   -2.38796
       H    11.08620   -9.91480    4.89728
       O    11.12802  -10.63549    4.22176
      H1    10.16815  -10.76324    4.05456
       H     5.54524  -12.01942   -0.02349
       O     5.05763  -12.82131    0.33466
      H1     4.49027  -13.05337   -0.39828
       H    14.65969  -15.80788    0.48576
       O    14.86215  -15.48339   -0.41834
      H1    13.98345  -15.10388   -0.58468
       H     5.97285  -13.45528    1.86895
       O     6.47995  -13.96948    2.49685
      H1     5.99125  -14.78729    2.60329
       H     8.51287   -9.67489   -4.40124
       O     7.85059   -9.76437   -5.08015
      H1     8.19015  -10.39388   -5.77136
       H     9.60472  -12.87088   -3.29943
       O     9.07890  -12.52422   -2.59494
      H1     8.10825  -12.62367   -2.93333
       H    10.51075  -14.57326    4.91615
       O     9.68815  -14.19949    5.16366
      H1     9.47608  -13.96387    4.23850
       H    11.45940  -15.95770    3.14886
       O    11.75954  -15.38708    3.89642
      H1    12.08119  -16.03313    4.56098
       H     9.36521   -9.84000   -2.33631
       O     9.85871  -10.10377   -3.15041
      H1     9.59569  -11.05154   -3.16658
       H     6.23788   -9.40623   -3.10221
       O     5.48274   -9.90542   -3.46333
      H1     4.86662   -9.72760   -2.74825
       H     6.86787  -10.04828    0.83280
       O     6.33413  -10.34201    0.09197
      H1     5.53919   -9.83026    0.14248
       H     9.49256  -13.21800    0.54845
       O    10.07777  -13.33278   -0.20005
      H1     9.44540  -13.25995   -0.95033
       H     6.67131  -11.41648   -4.53108
       O     6.89520  -12.30646   -4.32608
      H1     7.60659  -12.49556   -4.91241
       H    12.70177  -13.28030   -0.47553
       O    12.81933  -14.01348   -1.06838
      H1    11.93587  -14.42842   -1.08185
       H    14.75594  -11.44627    1.22761
       O    15.01216  -10.85902    1.93503
      H1    15.69171  -11.37317    2.35420
       H     5.17125  -18.20262   -2.32289
       O     5.95300  -18.22516   -2.90176
      H1     6.67068  -17.75138   -2.49649
       H     8.28470  -18.50572    0.38241
       O     7.45292  -18.19359    0.79910
      H1     6.93293  -18.99289    0.63635
       H    10.61297  -18.61235   -0.08752
       O    11.43657  -18.26974    0.39770
      H1    12.00474  -18.26955   -0.42368

