120
frame 1 | Written by MDAnalysis XYZWriter (release 2.4.3)
       H   -18.53864  -16.75397    7.26482
       O   -19.39553  -16.45558    7.64606
      H1   -19.04992  -15.68984    8.17906
       H   -16.95909  -17.67298    7.01063
       O   -17.36759  -17.92551    6.14894
      H1   -17.87292  -18.66939    6.44837
       H   -15.47329  -10.45788   12.55486
       O   -15.20254  -10.15777   13.43284
      H1   -15.03429   -9.23891   13.21879
       H   -14.25423  -16.81127    5.62318
       O   -14.26732  -17.39465    6.36392
      H1   -13.58495  -17.02360    6.91531
       H   -12.44877  -15.49992    6.15191
       O   -12.47448  -15.40050    7.13125
      H1   -12.17653  -14.47471    7.24936
       H   -14.07904  -12.39371   16.53649
       O   -13.72941  -12.24672   15.70284
      H1   -13.93140  -13.09958   15.25237
       H   -16.77930  -11.79272   16.21301
       O   -16.85431  -11.49272   15.29365
      H1   -15.97250  -11.44207   15.00632
       H   -15.04449  -18.53985    3.45603
       O   -14.18323  -18.87122    3.82357
      H1   -14.38711  -19.23584    4.69595
       H   -18.00792  -13.57483    6.47278
       O   -18.53193  -12.80577    6.49378
      H1   -18.16590  -12.32285    7.27722
       H   -17.22987  -10.95264    9.61209
       O   -16.95919  -11.17307    8.74506
      H1   -17.48485  -10.57502    8.19783
       H   -14.51877  -20.03462   13.12936
       O   -15.32305  -19.62522   13.53333
      H1   -15.14073  -18.69325   13.20876
       H   -16.09463  -14.48878    9.25459
       O   -15.22177  -14.63524    8.96837
      H1   -15.16774  -15.59613    8.86201
       H   -12.47870  -16.22054    3.65034
       O   -12.20743  -16.52991    4.52791
      H1   -12.46811  -17.48383    4.45002
       H   -18.36901  -15.35072   15.51758
       O   -18.86551  -14.62953   15.22232
      H1   -19.73837  -14.95976   15.36482
       H   -10.35787  -17.66402    9.46689
       O   -10.99950  -17.58198    8.74153
      H1   -11.44010  -16.73034    8.83287
       H   -18.44234  -10.64421   12.18958
       O   -17.84144  -11.04742   11.58309
      H1   -17.81179  -11.98633   11.85377
       H   -17.20153  -17.57366    9.38041
       O   -16.42692  -17.51763    8.74633
      H1   -15.88304  -18.08085    9.25592
       H   -15.01132  -11.60164    8.72744
       O   -14.14299  -11.95969    8.58863
      H1   -14.23349  -12.91552    8.47354
       H   -11.44657  -19.17007    9.98666
       O   -11.77773  -19.18628   10.91653
      H1   -11.50598  -18.29002   11.29165
       H   -14.50400  -17.25227   11.70330
       O   -14.72253  -16.76987   12.48802
      H1   -15.65113  -16.51502   12.45397
       H   -18.06609  -14.07993   10.75290
       O   -18.02912  -14.13357    9.78246
      H1   -18.44968  -13.22094    9.58655
       H   -11.34553  -15.46841   14.60641
       O   -11.34162  -14.47490   14.50023
      H1   -12.29498  -14.29253   14.49493
       H   -12.92011  -14.96575   11.28754
       O   -12.78712  -14.48475   10.45565
      H1   -13.71439  -14.52769   10.03555
       H   -10.18703  -17.54741   13.05280
       O   -10.82548  -17.00218   12.59237
      H1   -10.19474  -16.53677   12.08711
       H   -14.50005  -14.49087    3.57410
       O   -14.86621  -15.20206    4.13013
      H1   -15.16034  -14.65127    4.83636
       H   -16.87997  -17.04903   15.99884
       O   -17.61635  -17.06671   15.37574
      H1   -17.85626  -18.02933   15.44906
       H   -18.38631  -13.22857   16.77978
       O   -17.99808  -12.75198   17.51470
      H1   -18.70636  -12.14744   17.69363
       H   -15.44130  -14.19697    7.13965
       O   -15.83789  -13.87621    6.29938
      H1   -15.32870  -13.02694    6.15249
       H   -17.56661  -18.21646    2.21392
       O   -18.18023  -18.94170    2.22360
      H1   -17.77897  -19.53443    1.54536
       H   -14.86179  -17.15275   17.62581
       O   -15.34940  -17.97740   17.81872
      H1   -14.96377  -18.62500   17.21875
       H   -14.31640  -15.44301   13.64219
       O   -14.15822  -14.69802   14.23249
      H1   -14.82825  -14.09826   13.92427
       H   -18.21339  -18.90573   11.34165
       O   -18.58730  -18.44494   10.56971
      H1   -19.43983  -18.95186   10.62406
       H   -18.78240  -15.16254   19.30553
       O   -17.89895  -15.14346   19.77763
      H1   -17.45222  -14.69428   18.99782
       H   -17.52267  -16.73497   13.49973
       O   -17.35460  -16.38832   12.61242
      H1   -18.27248  -16.32559   12.34933
       H   -17.19043  -13.55083    4.89132
       O   -17.34656  -13.36501    3.89424
      H1   -17.72214  -14.06785    3.43166
       H   -17.46483  -14.20778   13.25643
       O   -17.15588  -13.30962   13.10952
      H1   -17.28726  -12.74354   13.94435
       H   -19.74596  -17.39297   17.98356
       O   -19.35802  -18.29007   17.98843
      H1   -19.45775  -18.50419   17.04316
       H   -14.55137  -19.45319   10.26208
       O   -14.42819  -18.50666   10.35261
      H1   -13.48257  -18.50643   10.24234
       H   -15.76224  -16.69109    3.76453
       O   -16.37834  -17.38275    3.43677
      H1   -16.65566  -17.84877    4.24220
       H   -18.04869  -16.25197    3.27100
       O   -18.90656  -15.86622    2.96695
      H1   -19.66608  -15.95163    3.54761

