120
frame 2 | Written by MDAnalysis XYZWriter (release 2.4.3)
       H   -13.07575  -17.70518  -15.44347
       O   -12.21071  -17.57279  -15.87784
      H1   -12.13853  -18.42938  -16.29364
       H   -11.75748  -13.04747  -16.20069
       O   -12.06612  -13.64771  -15.47179
      H1   -11.15099  -13.90566  -15.09951
       H   -18.10907  -15.68188  -10.53054
       O   -18.97805  -15.70706  -10.91206
      H1   -18.74119  -15.91509  -11.84946
       H   -18.50657  -12.33154  -10.89199
       O   -17.63562  -12.03478  -11.15727
      H1   -17.57822  -11.09699  -10.97721
       H    -8.25109  -14.95787  -15.36178
       O    -8.85520  -14.77228  -14.61741
      H1    -8.78172  -13.81707  -14.44663
       H   -11.36910  -10.97052  -17.96388
       O   -11.99471  -11.52893  -18.34744
      H1   -12.06022  -11.19633  -19.23972
       H   -11.34851  -14.50481  -11.69749
       O   -11.22343  -13.79099  -11.04796
      H1   -10.52344  -14.08888  -10.45083
       H   -11.90647  -14.76255  -19.30066
       O   -11.58869  -13.93796  -19.70540
      H1   -11.57620  -13.26836  -19.04557
       H   -14.42429  -15.27350  -17.63512
       O   -14.62705  -15.82599  -18.40919
      H1   -13.79370  -16.32896  -18.61749
       H   -14.07623  -16.06378   -8.06292
       O   -14.90443  -16.26546   -7.62228
      H1   -15.60945  -15.95792   -8.21681
       H   -11.94754  -16.29389  -13.40142
       O   -11.06797  -16.03566  -13.08461
      H1   -10.47429  -15.70228  -13.77560
       H   -17.81440  -15.24414   -8.26247
       O   -17.13194  -15.46484   -8.90067
      H1   -16.82015  -14.58796   -9.20336
       H   -16.27696  -12.33720  -16.42537
       O   -16.47343  -13.20536  -16.13078
      H1   -16.95368  -13.11200  -15.29439
       H   -13.95857  -10.09794  -14.24416
       O   -13.62950   -9.80114  -15.07952
      H1   -14.33465  -10.11505  -15.66416
       H   -13.51029   -9.59143  -17.97366
       O   -13.30277   -8.71644  -17.65039
      H1   -13.39071   -8.78389  -16.68600
       H   -13.12180  -11.73211  -13.46042
       O   -13.92335  -11.81452  -12.92397
      H1   -13.75336  -11.17887  -12.24951
       H   -15.42097  -18.14522  -15.61614
       O   -14.95417  -18.40229  -14.81423
      H1   -15.01199  -19.33631  -14.69899
       H   -19.73121  -12.93120  -14.91659
       O   -19.95794  -13.81506  -14.61837
      H1   -19.25016  -14.08283  -14.00651
       H   -16.73648  -18.67749   -7.95351
       O   -17.60433  -18.27353   -7.79112
      H1   -17.47953  -17.52204   -8.37895
       H   -11.17039  -16.67014  -18.78148
       O   -12.11371  -16.54751  -18.61507
      H1   -12.18518  -16.60767  -17.62606
       H   -17.41299  -18.63530  -18.59480
       O   -17.62420  -19.18168  -19.41696
      H1   -17.36543  -18.54898  -20.13608
       H   -17.32958   -8.77606  -19.53285
       O   -17.58381   -8.50078  -18.62459
      H1   -17.84357   -9.34834  -18.24673
       H   -16.93584  -15.16858  -13.45101
       O   -17.88664  -15.41579  -13.62887
      H1   -17.83232  -16.16820  -14.27695
       H   -15.70838  -11.04865  -17.67153
       O   -15.27169  -10.84213  -16.81140
      H1   -15.97228  -10.27780  -16.35291
       H   -19.54475   -8.10961  -14.99732
       O   -19.54414   -8.39652  -15.91390
      H1   -19.36868   -7.54008  -16.33356
       H   -13.81540  -14.40414  -15.62377
       O   -14.69250  -14.91418  -15.58624
      H1   -15.40322  -14.25547  -15.83740
       H   -17.04108  -17.46499  -16.56746
       O   -16.20897  -17.68195  -17.02751
      H1   -15.75577  -16.97621  -17.48476
       H    -9.19489  -16.11686  -18.93180
       O    -9.65490  -16.06756  -19.77941
      H1    -9.99444  -15.18824  -19.86934
       H   -14.81370  -13.48901  -13.04916
       O   -15.10619  -14.42895  -12.96666
      H1   -14.97890  -14.72176  -13.90407
       H   -14.98776  -19.55499   -9.49842
       O   -15.24484  -19.26747   -8.64391
      H1   -14.70676  -18.45671   -8.48520
       H   -17.12421  -10.72106  -14.13215
       O   -17.52278  -11.58920  -13.86378
      H1   -17.26888  -11.77757  -12.96916
       H    -8.67423  -17.48323  -17.30256
       O    -8.39500  -16.54424  -17.24742
      H1    -7.46121  -16.59192  -17.37741
       H   -12.66534  -18.11975  -10.21637
       O   -13.44490  -17.56526  -10.32174
      H1   -13.26326  -17.23750  -11.22730
       H   -17.71964   -8.83054  -15.30670
       O   -16.86718   -9.23264  -15.14043
      H1   -16.36089   -8.43498  -15.22217
       H   -10.11685  -17.79745  -13.14291
       O    -9.56781  -18.58566  -13.03904
      H1    -8.66022  -18.24055  -13.14415
       H   -18.95395  -18.24575  -14.94436
       O   -18.52785  -17.50314  -15.49610
      H1   -19.22138  -16.88520  -15.78834
       H    -8.62464  -18.93253  -19.72038
       O    -8.65307  -19.08657  -18.76504
      H1    -9.58795  -19.16362  -18.50322
       H   -19.13478  -11.22306  -17.01220
       O   -18.74691  -10.93037  -17.87598
      H1   -18.40945  -11.82112  -18.14548
       H   -14.07290  -17.19655  -13.47727
       O   -13.61879  -16.68415  -12.78597
      H1   -14.06803  -15.83586  -12.79770
       H   -14.47548  -13.88679   -9.32477
       O   -15.26206  -13.35180   -9.45203
      H1   -15.53456  -13.47651  -10.32967

