120
frame 0 | Written by MDAnalysis XYZWriter (release 2.4.3)
       H    -6.39475   -7.70460  -11.97379
       O    -6.68642   -8.05831  -11.12658
      H1    -6.01781   -7.62975  -10.56123
       H    -1.77808    0.46496  -14.07849
       O    -1.47146   -0.04014  -13.27592
      H1    -2.29822    0.06305  -12.73090
       H    -8.01830    1.00376   -6.05311
       O    -8.82516    1.59565   -6.10251
      H1    -8.53465    2.11472   -6.86185
       H    -1.53849   -3.08477  -13.67188
       O    -2.14277   -2.49417  -14.10442
      H1    -1.71669   -1.63223  -13.84486
       H    -7.14358    1.52628  -17.19292
       O    -7.74278    1.22726  -16.47004
      H1    -7.82878    0.25297  -16.66365
       H    -8.56431    0.98178   -8.65068
       O    -8.69747    0.03901   -8.80357
      H1    -9.07158   -0.22391   -7.92826
       H    -6.63011   -1.69347  -10.86875
       O    -7.57799   -1.43210  -11.04835
      H1    -7.77649   -0.98918  -10.21949
       H    -4.91380    1.80285  -14.66154
       O    -5.73769    1.33965  -14.49054
      H1    -6.34959    1.45920  -15.24733
       H    -5.58906   -1.95744  -15.03623
       O    -5.55494   -1.32019  -15.75169
      H1    -5.56930   -0.49700  -15.21715
       H   -12.20045   -4.11743   -8.72764
       O   -12.06172   -3.21411   -9.07545
      H1   -12.30805   -2.63532   -8.31374
       H    -8.87087   -7.10111  -12.14760
       O    -9.34425   -6.96796  -12.91088
      H1    -9.30270   -5.98916  -13.07822
       H    -8.94621   -4.42087  -11.18825
       O    -8.01591   -4.11204  -10.97859
      H1    -8.14162   -3.13251  -10.97576
       H    -6.31670   -5.40191  -13.48114
       O    -5.77827   -5.42031  -12.70707
      H1    -6.48079   -5.25563  -12.06339
       H   -10.99822   -4.26075  -10.41438
       O   -10.68510   -4.88147  -11.02628
      H1   -11.30294   -5.60531  -11.08005
       H    -2.96244   -5.98880  -12.43694
       O    -3.33722   -6.52165  -11.67819
      H1    -3.92807   -5.90415  -11.27944
       H    -9.94827    0.24476   -9.92736
       O   -10.59538    0.52047  -10.64013
      H1   -11.40526    0.53262  -10.08210
       H    -7.77968   -2.79854  -13.94639
       O    -8.11460   -1.82895  -13.94275
      H1    -7.83807   -1.56189  -13.00711
       H   -11.56979   -1.84025  -14.17298
       O   -11.99904   -1.11517  -13.73451
      H1   -11.34959   -0.42319  -13.62681
       H    -9.50909   -4.56753  -14.69832
       O    -8.59412   -4.72813  -14.42008
      H1    -8.20564   -5.23298  -15.13492
       H    -3.95725   -1.52407   -4.76857
       O    -3.98377   -2.47348   -5.12996
      H1    -4.64014   -2.36624   -5.83913
       H   -12.80007   -1.41492  -11.72394
       O   -13.32682   -1.54908  -10.90613
      H1   -12.78057   -2.24924  -10.42472
       H    -9.81814   -1.22683   -5.83566
       O   -10.31533   -1.06612   -6.68179
      H1   -10.49108   -0.16724   -6.49440
       H    -8.05291   -4.86648   -9.40771
       O    -7.73305   -5.13064   -8.49455
      H1    -8.59476   -5.52275   -8.19627
       H    -3.58111    1.78030   -6.99320
       O    -4.23600    1.81108   -6.29176
      H1    -4.84576    1.13155   -6.61048
       H    -4.64924   -0.28441  -12.38002
       O    -4.00128   -0.03721  -11.70043
      H1    -4.19027    0.91875  -11.42768
       H    -8.16846    2.18338  -12.72895
       O    -7.24594    2.56816  -12.58536
      H1    -6.64133    1.99646  -13.15826
       H    -5.97657   -6.00182   -8.95437
       O    -5.18649   -6.44973   -9.28634
      H1    -4.48337   -6.28815   -8.60881
       H    -9.33332   -0.40056  -13.80726
       O    -9.63465    0.42472  -13.37327
      H1    -9.48999    0.20177  -12.46650
       H    -2.39478   -2.61801   -8.09343
       O    -2.26355   -3.19739   -8.86075
      H1    -2.58451   -4.05743   -8.58675
       H    -7.11051    3.02744   -8.91273
       O    -7.96185    2.68468   -8.67131
      H1    -8.60277    3.18638   -9.21834
       H   -11.18359   -4.39578  -12.52484
       O   -11.37884   -4.21769  -13.47026
      H1   -12.00751   -4.92925  -13.54974
       H    -7.90284   -1.56624  -15.82208
       O    -8.30652   -1.54571  -16.72792
      H1    -7.39179   -1.61824  -17.08813
       H    -8.46513   -3.16348   -5.35970
       O    -7.91741   -3.89239   -5.56268
      H1    -8.28627   -4.09855   -6.46906
       H   -11.09162    2.82774  -12.42622
       O   -10.25160    2.86670  -11.96517
      H1   -10.41794    2.06950  -11.42495
       H    -2.43716    3.27303   -8.22033
       O    -2.75305    2.43869   -8.57711
      H1    -1.95598    1.80692   -8.47300
       H    -3.99753   -3.03789  -13.78954
       O    -4.93695   -2.97629  -13.47403
      H1    -5.01605   -3.87070  -13.13331
       H    -4.44634   -0.85331  -10.42042
       O    -4.51105   -1.40197   -9.60696
      H1    -3.85935   -2.16643   -9.70213
       H    -4.53548    3.36230  -11.00308
       O    -4.70864    2.61912  -11.58472
      H1    -5.65769    2.57258  -11.72263
       H    -6.47012   -0.73969   -6.46012
       O    -6.47256    0.14031   -5.98844
      H1    -6.64859   -0.20382   -5.05365
       H    -5.54701   -1.81992   -8.26333
       O    -6.13215   -2.12032   -7.53875
      H1    -6.42708   -2.97268   -7.90266

