120
frame 0 | Written by MDAnalysis XYZWriter (release 2.4.3)
       H    16.20109    5.48584    4.92908
       O    15.27962    5.71640    5.12560
      H1    14.76526    5.31896    4.46540
       H    17.44115   11.17071    2.23834
       O    16.70419   10.66185    2.00506
      H1    16.40317   10.40287    2.86332
       H    18.02663    8.96376    6.64373
       O    17.31434    9.41276    6.09848
      H1    16.53983    8.77452    6.20660
       H    14.05619    3.67359   -1.47564
       O    14.39693    3.52567   -0.58958
      H1    15.31056    3.86087   -0.76009
       H    15.95340   10.15201   -0.75996
       O    16.77938    9.66372   -0.62392
      H1    16.77903    9.76381    0.34651
       H    15.77235    0.42701    4.24490
       O    16.04843   -0.38730    3.81293
      H1    16.09295   -0.01519    2.91361
       H    17.40719    7.90823   -0.72917
       O    17.50388    7.09615   -1.19642
      H1    17.50811    6.47243   -0.44907
       H    17.27302    7.22645    2.19664
       O    17.18102    6.52061    1.57294
      H1    16.20309    6.56013    1.47374
       H    16.43661    8.82536   -4.22695
       O    16.00010    9.57292   -4.64867
      H1    15.13963    9.72387   -4.19244
       H    15.41613    0.33610   -2.62214
       O    15.10420    0.15631   -1.70023
      H1    14.28630    0.56923   -1.56761
       H    13.81905    5.64193   -2.44765
       O    13.50672    4.83875   -2.84988
      H1    12.52834    4.88819   -2.64282
       H    18.61604   -0.66908   -0.12114
       O    18.50125   -0.64375   -1.05060
      H1    17.94648   -1.37961   -1.37478
       H    15.82703    3.06357   -4.96186
       O    15.46722    2.35193   -5.54240
      H1    14.51112    2.46414   -5.29768
       H    18.64155   -0.79622    6.48784
       O    19.42513   -0.25816    6.68736
      H1    19.55173   -0.46013    7.60208
       H    15.93821   -0.58489    0.13795
       O    16.34764   -0.26770    0.92786
      H1    16.97808    0.40838    0.58633
       H    15.09692    1.23364    1.03244
       O    14.50045    1.87454    1.44141
      H1    14.28213    2.45598    0.64243
       H    19.36756    4.91122   -6.61391
       O    18.65249    5.47601   -6.94785
      H1    18.72537    6.02470   -6.12613
       H    13.95562    3.60492    2.61816
       O    13.78335    4.55906    2.93633
      H1    12.95884    4.38656    3.38402
       H    12.62088    1.99123    0.56395
       O    11.68691    1.99248    0.28754
      H1    11.19574    2.19792    1.09045
       H    17.88864    2.30136    7.84338
       O    17.57572    1.65889    7.17487
      H1    18.41434    1.48940    6.68403
       H    16.34848    5.46002   -3.99065
       O    16.11938    4.54188   -3.84725
      H1    15.18835    4.64280   -3.60760
       H    14.10469    5.68292    1.59391
       O    14.45093    6.39896    1.07918
      H1    14.01905    7.15071    1.47003
       H    15.87582    1.14772   -4.64061
       O    16.26269    0.50463   -4.01720
      H1    17.19510    0.62804   -4.19703
       H    18.02605   -0.56269    2.28782
       O    19.00034   -0.57618    2.34348
      H1    19.11977   -0.05710    3.14127
       H    18.10912    4.50909    5.91451
       O    17.81615    4.96726    5.11648
      H1    17.87374    4.30984    4.38758
       H    15.36990    7.30679   -2.01691
       O    14.50467    7.05503   -1.64136
      H1    14.74806    6.63570   -0.77389
       H    19.49935    2.74293    3.44888
       O    18.59528    2.81232    3.07773
      H1    18.09132    2.15421    3.58773
       H    15.27574    6.70955    6.54410
       O    15.63570    7.23589    7.33680
      H1    15.19214    6.78504    8.03851
       H    19.79513   11.03378   -1.28170
       O    18.94469   11.47652   -1.29654
      H1    18.23028   10.75768   -1.13839
       H    19.37043    1.12702   -7.60643
       O    18.48691    0.96240   -7.16147
      H1    18.63633    1.40263   -6.33210
       H    19.09407    2.16671   -3.91990
       O    18.76189    1.47428   -4.52636
      H1    19.52806    0.83806   -4.42764
       H    12.11789    9.19049   -0.74091
       O    13.08531    9.27279   -0.58506
      H1    13.42793    8.49261   -1.04363
       H    17.27113    3.83708   -1.99974
       O    17.13554    3.76212   -1.02000
      H1    17.99068    4.17507   -0.69255
       H    13.52048    0.43262    2.63813
       O    13.17869   -0.25915    3.19838
      H1    13.68489   -0.99694    2.94957
       H    19.62828    4.20777    0.72491
       O    19.22853    4.93949    0.25712
      H1    18.57412    5.17310    0.93648
       H    17.81303    6.15943    8.68116
       O    18.19108    6.29133    7.77555
      H1    17.42630    6.59919    7.37567
       H    14.82894    1.88506    5.43204
       O    15.70018    2.07628    4.97312
      H1    16.39128    1.92066    5.70156
       H    18.11581    7.50553   -4.14660
       O    17.27716    7.14982   -3.92374
      H1    17.39658    6.94740   -2.95494
       H    18.18944    8.36182    4.52328
       O    18.38015    7.98627    3.69041
      H1    18.85724    8.70983    3.31084
       H    18.25777    2.25261    1.36824
       O    18.30089    1.83343    0.53450
      H1    17.74614    2.37376   -0.13996

