120
frame 5 | Written by MDAnalysis XYZWriter (release 2.4.3)
       H   -15.96088  -12.56074   -0.39047
       O   -16.52201  -12.53391   -1.18891
      H1   -17.34021  -13.09464   -1.10377
       H   -15.99829   -8.52016   -2.80774
       O   -15.50437   -7.91319   -2.17695
      H1   -14.98059   -7.34571   -2.81989
       H   -15.34724   -8.71786    0.77871
       O   -15.22022   -7.85079    0.51908
      H1   -15.07806   -7.92781   -0.42035
       H   -17.96744  -13.17830    2.30397
       O   -18.64570  -12.66013    1.94070
      H1   -18.35035  -11.77046    2.10618
       H   -17.56892  -15.87093    5.14724
       O   -18.19079  -15.18872    4.85630
      H1   -19.02197  -15.61485    5.07356
       H   -17.49054  -15.37056   -7.63678
       O   -16.66668  -15.75733   -8.05439
      H1   -16.84150  -15.44305   -8.94122
       H   -17.66476  -15.15787   -4.20408
       O   -18.60669  -15.01375   -4.17147
      H1   -19.09638  -15.85956   -4.01447
       H   -16.64205  -14.78517    3.01988
       O   -16.26426  -13.97353    2.55236
      H1   -16.12294  -13.35585    3.31093
       H   -16.67535  -18.30254    0.76385
       O   -16.09049  -17.66907    1.12308
      H1   -15.77334  -17.81528    1.99265
       H   -18.22851   -8.53171   -1.23819
       O   -18.45758   -7.58488   -1.01792
      H1   -17.71233   -7.10533   -1.37049
       H   -15.58740  -17.16556    4.29544
       O   -15.09119  -17.32116    3.48537
      H1   -14.85884  -18.28182    3.40898
       H   -17.73879  -18.97737   -7.13497
       O   -17.54787  -18.38876   -7.90489
      H1   -17.26312  -17.52400   -7.67378
       H   -18.32310  -13.55040    5.92971
       O   -18.42895  -12.69415    6.25529
      H1   -17.92007  -12.63591    7.11225
       H   -15.09308  -13.07354    1.35428
       O   -14.56252  -12.54449    0.75284
      H1   -14.12188  -11.92463    1.27141
       H   -12.07286  -15.67694    2.02771
       O   -11.76015  -15.99952    1.16156
      H1   -11.86843  -15.18449    0.59689
       H   -18.58976  -10.05299    3.32713
       O   -18.31908   -9.97935    2.38959
      H1   -17.66724   -9.25809    2.34598
       H   -14.55869   -8.10642   -6.17087
       O   -13.99045   -8.63573   -5.58369
      H1   -13.19460   -8.58254   -6.14997
       H   -19.78794  -13.50536   -1.64477
       O   -18.93443  -13.89516   -1.55726
      H1   -18.70296  -14.26582   -2.42381
       H   -18.77896  -10.62903    5.41787
       O   -19.25836   -9.94614    4.87360
      H1   -20.14326  -10.30837    4.75646
       H   -16.85012   -9.69586   -5.21557
       O   -16.63300   -9.78357   -4.24830
      H1   -17.49875   -9.81373   -3.78708
       H   -17.32550  -10.64435   -1.43776
       O   -17.88159  -10.03541   -1.92390
      H1   -18.80182  -10.34861   -1.81728
       H   -13.54788   -9.81930    2.66140
       O   -13.48821  -10.80821    2.63782
      H1   -12.74890  -10.90874    3.27452
       H   -13.99866  -10.08313   -3.54749
       O   -13.36450  -10.57063   -2.99951
      H1   -13.91177  -11.39846   -2.84933
       H   -18.93829  -15.51668   -0.59510
       O   -18.44578  -16.31554   -0.38482
      H1   -17.64122  -15.87362   -0.00796
       H   -19.74796  -15.79371   -7.16575
       O   -19.16549  -15.10532   -6.81855
      H1   -18.99011  -15.34220   -5.88063
       H   -16.09134  -11.31826   -3.82909
       O   -15.58226  -12.17198   -3.67838
      H1   -15.84716  -12.41038   -2.74767
       H   -15.11275  -12.03747    5.50302
       O   -15.64711  -12.74166    5.05729
      H1   -16.27867  -12.99823    5.77427
       H   -18.19269  -17.80304   -1.53658
       O   -18.46082  -18.52166   -2.06908
      H1   -18.03260  -19.27391   -1.70054
       H   -14.20848  -13.04561   -4.86271
       O   -13.34697  -13.26969   -5.18554
      H1   -13.09129  -12.52701   -5.72447
       H   -19.72225   -7.12382   -5.12242
       O   -19.30192   -7.24534   -5.96602
      H1   -18.45709   -6.83328   -5.84149
       H   -12.31575  -14.03789   -1.36067
       O   -11.87524  -13.76338   -0.56642
      H1   -12.68855  -13.34511   -0.18600
       H   -17.88612   -6.64531    2.37629
       O   -17.12708   -6.98817    2.81683
      H1   -16.38851   -7.04113    2.14196
       H   -14.51323  -19.24853   -4.86922
       O   -14.07134  -18.39462   -5.11373
      H1   -13.81634  -18.43542   -6.08543
       H   -14.68895  -12.16359   -8.35793
       O   -14.61661  -11.82521   -7.44222
      H1   -15.47690  -11.43994   -7.38178
       H   -12.53188  -17.39690   -1.68483
       O   -12.01786  -17.21091   -2.46881
      H1   -12.15236  -17.99250   -3.01263
       H   -15.05377  -15.34933   -3.59613
       O   -15.70522  -15.53291   -4.33508
      H1   -15.39724  -16.43097   -4.64969
       H   -17.69195  -11.00673   -7.93482
       O   -17.09561  -10.32636   -7.59024
      H1   -17.47371   -9.52840   -8.03945
       H   -13.20174  -14.13825   -3.62025
       O   -13.33957  -14.70197   -2.84448
      H1   -13.12878  -15.58194   -3.20827
       H   -12.85781  -17.22722    0.27535
       O   -13.50700  -17.87190   -0.06397
      H1   -14.28190  -17.52184    0.42897
       H   -14.88845  -15.38995   -7.08913
       O   -13.89173  -15.56863   -6.98251
      H1   -13.62582  -14.83741   -6.42306

