120
frame 0 | Written by MDAnalysis XYZWriter (release 2.4.3)
       H    10.28511   12.40752  -17.70441
       O    10.39241   12.66493  -16.72243
      H1    11.32111   12.44627  -16.62421
       H     7.40353   10.38724   -9.80444
       O     7.07043   11.17761  -10.19990
      H1     6.97289   11.73748   -9.39929
       H     9.75457   13.19458   -8.82031
       O     9.95232   13.57419   -7.96187
      H1    10.67843   14.23743   -8.17978
       H     3.83037   10.66813  -12.05102
       O     4.05058   11.01969  -12.92690
      H1     4.99683   11.09888  -12.94223
       H     6.86218    9.13277  -12.76869
       O     6.75129    9.96065  -13.29260
      H1     7.64749    9.93954  -13.59991
       H     7.78238   16.20664  -14.83241
       O     8.69843   16.35725  -14.54119
      H1     8.87216   17.32229  -14.83668
       H     9.67229   15.45574  -16.07369
       O    10.30790   15.39939  -16.80918
      H1    10.47983   14.44428  -16.92781
       H    11.43299    9.06913  -13.35355
       O    10.80005    8.38783  -13.51491
      H1    10.95778    8.05547  -14.40499
       H    11.72839   16.13933  -16.21817
       O    12.66905   16.24138  -15.99813
      H1    13.14373   15.52236  -16.41873
       H    10.21378   10.18429  -16.21365
       O    10.78193    9.76583  -16.88604
      H1    10.57936   10.36179  -17.65703
       H    10.99607   15.62421  -12.97623
       O    10.40360   14.90982  -12.66391
      H1     9.58726   15.02332  -13.17486
       H     7.45193   12.57769  -15.23501
       O     7.96150   13.38215  -15.32773
      H1     8.65495   13.28790  -16.00414
       H    11.14224   15.64881  -10.96419
       O    11.31728   15.70773   -9.98573
      H1    12.18527   16.14116   -9.95844
       H     8.69338    7.50901  -11.28520
       O     9.35520    6.86287  -11.02436
      H1    10.20529    7.19801  -11.46327
       H    12.59577   16.48852  -14.46619
       O    12.44998   16.73058  -13.47774
      H1    11.82274   17.43859  -13.56707
       H     1.80777    9.43190  -14.14424
       O     2.67665    8.96911  -14.25121
      H1     3.30323    9.63711  -13.83187
       H     3.86743   11.12283   -9.95290
       O     4.21727   10.30218  -10.28669
      H1     5.16449   10.42315  -10.20923
       H     9.78504    9.84649  -13.89612
       O     9.29766   10.57520  -14.39869
      H1     9.60955   11.37852  -13.86542
       H     5.78792    8.00631  -11.72076
       O     6.68145    7.99283  -11.34424
      H1     6.48818    8.50708  -10.53367
       H     5.14235   13.77893  -17.39797
       O     5.37064   12.90214  -16.98549
      H1     4.91573   12.91125  -16.13499
       H    14.16556   12.56231   -9.44264
       O    13.61345   11.89567   -9.83168
      H1    12.89372   12.40089  -10.24483
       H     6.08533   15.85660   -9.28612
       O     6.29496   15.73232   -8.34338
      H1     6.69614   14.86182   -8.15120
       H     9.30634   12.96189  -11.24279
       O     9.75685   12.50062  -10.53345
      H1     9.06342   11.89198  -10.22482
       H     8.26727   13.15345  -13.45985
       O     8.12319   13.07167  -12.50002
      H1     7.18136   13.11344  -12.29522
       H     7.06872    8.62632   -8.04059
       O     7.69263    9.10930   -8.61781
      H1     8.43861    9.50845   -8.15868
       H     4.58853   15.78359  -15.99499
       O     3.68996   15.71593  -15.58931
      H1     3.88950   15.66581  -14.63171
       H     7.30014   16.86959  -10.86323
       O     7.10284   17.70074  -10.41247
      H1     7.14925   18.22174  -11.24907
       H     4.71992   14.68702  -10.77866
       O     5.57986   14.97594  -11.09705
      H1     5.33650   15.82893  -11.62121
       H    12.12420   11.59308  -12.50277
       O    11.63838   10.79930  -12.22060
      H1    11.20920   11.20043  -11.43539
       H    10.06659   18.03783  -10.80252
       O    10.36919   18.06901  -11.70797
      H1     9.68028   18.60677  -12.08542
       H     3.37638   12.96579   -7.81600
       O     3.89614   13.19419   -8.56221
      H1     3.79721   14.12792   -8.74498
       H     6.40745   11.76548   -7.48451
       O     6.36056   12.59463   -7.97099
      H1     5.45125   12.81261   -7.95800
       H    10.60241   10.25591   -7.54369
       O     9.73089   10.69020   -7.69380
      H1     9.98120   11.58404   -7.77192
       H     4.93834    9.74291  -16.49608
       O     4.32351    9.70446  -17.22787
      H1     4.74657   10.32406  -17.87753
       H     6.91008   15.94905  -16.94415
       O     6.32264   15.86352  -16.13904
      H1     6.28437   14.89319  -15.99300
       H    13.67666   10.43109  -12.32500
       O    14.63809   10.48971  -12.30047
      H1    14.74677   11.09249  -11.51997
       H     3.62153   17.15414  -12.15066
       O     4.51759   16.86612  -12.47468
      H1     4.63712   17.58255  -13.11435
       H    10.17104   17.03738   -9.32572
       O     9.71844   17.83587   -8.98052
      H1     8.75511   17.73149   -9.21562
       H     3.61946   13.24504  -12.91379
       O     4.11838   14.02728  -13.10228
      H1     4.77512   14.07176  -12.41875
       H    13.23840   13.87270  -12.35998
       O    12.67894   13.23300  -12.86925
      H1    11.86017   13.74628  -13.04400

