120
frame 7 | Written by MDAnalysis XYZWriter (release 2.4.3)
       H    -9.54444  -17.20491   -8.74794
       O    -9.11235  -16.79816   -9.50689
      H1    -8.62167  -17.55785   -9.85513
       H    -2.82045  -15.05003  -10.42509
       O    -3.58232  -15.51448  -10.72997
      H1    -4.38128  -14.94923  -10.61356
       H    -7.47073  -15.59164  -14.28759
       O    -7.88403  -16.06162  -13.49145
      H1    -7.30467  -16.85155  -13.30080
       H    -7.25370  -12.01885  -11.18195
       O    -7.36533  -11.56977  -11.98026
      H1    -6.47983  -11.37690  -12.30140
       H   -11.87323  -16.85521  -11.90721
       O   -11.31581  -16.20511  -11.46140
      H1   -10.75955  -16.62578  -10.76489
       H   -10.88179  -10.73597  -13.32572
       O   -11.50299  -10.95496  -14.03362
      H1   -11.11487  -11.72788  -14.40751
       H    -9.03714  -13.98860  -11.83175
       O    -9.90114  -13.92523  -12.18019
      H1   -10.33779  -14.78882  -11.94805
       H    -7.16404  -15.44702  -11.96417
       O    -6.80327  -15.00538  -11.14950
      H1    -6.34923  -14.22486  -11.59091
       H    -8.34483   -5.87998  -10.93407
       O    -8.38851   -6.35984  -10.06472
      H1    -8.35871   -7.32017  -10.26367
       H   -10.53361  -13.06946  -10.59270
       O   -10.67680  -12.80691   -9.66936
      H1   -10.36357  -13.60654   -9.28524
       H   -10.68389  -15.77067   -6.97096
       O   -10.44367  -14.80431   -7.04420
      H1    -9.79080  -14.57595   -6.29220
       H    -1.83180  -14.54084   -6.03479
       O    -2.17161  -13.62451   -5.85859
      H1    -2.99868  -13.76740   -5.30729
       H    -9.91038  -13.31584  -14.17155
       O   -10.18776  -13.18221  -15.07396
      H1    -9.40340  -12.97759  -15.54227
       H    -5.39400  -16.71689   -7.77715
       O    -6.06831  -17.20838   -8.25327
      H1    -6.76874  -16.57046   -8.21877
       H    -8.49202   -6.46404   -8.31172
       O    -8.63274   -6.46410   -7.34769
      H1    -7.82929   -6.90442   -6.94231
       H    -3.74570  -12.43859   -3.68994
       O    -4.05762  -13.35144   -3.86259
      H1    -4.72492  -13.24487   -4.52914
       H    -4.90311  -10.13408  -12.84091
       O    -4.80776  -10.65222  -11.99607
      H1    -4.14223  -10.21141  -11.44596
       H   -11.54065   -8.66198  -11.09716
       O   -10.87853   -8.08632  -11.41061
      H1   -11.17164   -7.79486  -12.28271
       H    -5.25907  -13.25582  -12.95180
       O    -5.03073  -13.20769  -12.02177
      H1    -4.96274  -12.21924  -11.94490
       H    -9.01351  -10.74615  -12.06408
       O    -9.94977  -10.60441  -11.89801
      H1    -9.98838   -9.63991  -11.76562
       H    -7.45595   -9.56616  -11.06964
       O    -7.83704   -9.00345  -10.34856
      H1    -7.03221   -8.78378   -9.88273
       H    -9.87435  -10.95557   -6.48432
       O    -9.71277  -11.33278   -5.62845
      H1   -10.52439  -11.15081   -5.11527
       H    -8.68813  -15.18866   -4.51800
       O    -8.63350  -14.29711   -4.94181
      H1    -9.26245  -13.76687   -4.37849
       H    -3.75443  -14.64518   -6.97800
       O    -4.47910  -15.33503   -6.84098
      H1    -5.18224  -14.79965   -6.45926
       H    -2.56008  -12.71536   -9.90728
       O    -1.91559  -12.98639  -10.55920
      H1    -1.06541  -12.97427  -10.13893
       H   -11.12108   -8.74408   -7.57641
       O   -10.95246   -8.05266   -6.94262
      H1   -10.11106   -7.72790   -7.24872
       H    -6.37750   -7.13569   -4.29069
       O    -6.66354   -7.22914   -5.22654
      H1    -6.78666   -8.18192   -5.34059
       H    -7.93892  -10.52094   -5.16443
       O    -7.08159  -10.22613   -4.87670
      H1    -6.92723  -10.84248   -4.14319
       H    -5.18737   -6.92920   -9.23359
       O    -5.71408   -7.61262   -8.88804
      H1    -5.43279   -7.84758   -8.00470
       H    -3.44769  -11.41126   -8.43782
       O    -4.07544  -12.04267   -8.79950
      H1    -4.91887  -11.58716   -8.64193
       H    -2.06315   -9.89619   -8.62197
       O    -1.60219  -10.54615   -8.13605
      H1    -1.80656  -10.28921   -7.17180
       H    -2.66237  -13.44074  -13.69289
       O    -2.02207  -13.02981  -13.16508
      H1    -2.36330  -13.07703  -12.25884
       H    -4.58788   -7.99364   -6.06798
       O    -3.74385   -8.06492   -6.51402
      H1    -3.43605   -7.09831   -6.51928
       H    -8.06981  -15.09332   -8.99689
       O    -7.85000  -14.80794   -8.04471
      H1    -8.69886  -15.03866   -7.58159
       H   -13.67616  -12.92007   -7.05759
       O   -13.22551  -13.72333   -6.69609
      H1   -12.26207  -13.44557   -6.67943
       H   -11.80566  -10.49764   -9.66235
       O   -12.63657  -10.04768   -9.79477
      H1   -13.27687  -10.67214   -9.50176
       H    -7.10859  -13.14251   -5.55764
       O    -6.26091  -12.96768   -6.03963
      H1    -6.32597  -12.00848   -6.18181
       H    -2.79093   -8.11514   -9.96863
       O    -3.40952   -8.86884   -9.83186
      H1    -4.24922   -8.48189   -9.55133
       H    -9.07861   -9.91901   -9.24845
       O    -9.69168  -10.31762   -8.61035
      H1   -10.01159  -11.16262   -8.94326
       H    -7.58879  -12.88578   -8.58965
       O    -7.29266  -12.06343   -9.00021
      H1    -8.00632  -11.36549   -8.81984

