120
frame 0 | Written by MDAnalysis XYZWriter (release 2.4.3)
       H     4.97867    7.54394  -14.16748
       O     4.71257    7.45387  -13.25545
      H1     3.94329    8.05423  -13.27369
       H     1.27544    4.58986   -8.90703
       O     1.50723    5.45734   -8.60411
      H1     1.02708    6.12569   -9.20613
       H     3.83037   10.66813  -12.05102
       O     4.05058   11.01969  -12.92690
      H1     4.99683   11.09888  -12.94223
       H     6.86218    9.13277  -12.76869
       O     6.75129    9.96065  -13.29260
      H1     7.64749    9.93954  -13.59991
       H     1.83367    2.11723   -8.88137
       O     1.15500    2.80149   -8.99998
      H1     0.74068    2.56452   -9.82303
       H    -2.36430    8.79737  -11.99154
       O    -2.14718    9.77210  -12.11729
      H1    -2.41770   10.06581  -11.26724
       H     0.46190    7.81551   -8.12864
       O    -0.13107    7.88504   -7.31740
      H1     0.00012    8.84323   -7.06262
       H     3.17923    2.23102  -10.74309
       O     3.89635    2.17434  -11.33388
      H1     4.02685    3.04616  -11.72917
       H     4.84127    0.55330  -13.39049
       O     3.86086    0.46858  -13.38848
      H1     3.70910    1.03860  -12.61879
       H     0.74710    3.50734  -13.33669
       O     1.31801    3.43560  -12.50564
      H1     1.03654    2.59567  -12.20013
       H     6.69271    2.09082  -13.85428
       O     6.47838    1.18885  -13.57599
      H1     6.92741    1.16944  -12.73271
       H     2.24553    8.67522   -8.85180
       O     1.41468    8.53911   -9.39981
      H1     1.81797    8.08428  -10.15118
       H    -1.24846    4.34116  -10.83622
       O    -1.62192    3.45600  -11.10058
      H1    -2.07064    3.19673  -10.25216
       H     2.52867    1.09923  -14.77446
       O     1.87487    1.68381  -15.14785
      H1     2.06612    2.48320  -14.55701
       H    -0.12116    0.49709  -11.77530
       O    -0.01162    1.25968  -11.17149
      H1    -0.75053    1.83749  -11.34212
       H     5.90882    7.61288   -6.60474
       O     5.84025    7.48411   -7.55884
      H1     5.96073    6.49181   -7.59936
       H     1.10823   10.92638  -11.60261
       O     1.32723   11.19681  -10.66827
      H1     1.45342   10.36008  -10.16572
       H     3.09091    8.00035  -16.78571
       O     2.59386    7.26203  -16.37385
      H1     2.41113    7.68351  -15.52218
       H     8.69338    7.50901  -11.28520
       O     9.35520    6.86287  -11.02436
      H1    10.20529    7.19801  -11.46327
       H     6.51413    6.50125  -14.90257
       O     6.04707    6.93342  -15.64006
      H1     6.60635    7.59547  -16.06610
       H     7.41328    4.35482  -14.85042
       O     6.89375    4.20304  -14.05054
      H1     7.60554    4.42595  -13.38723
       H     1.80777    9.43190  -14.14424
       O     2.67665    8.96911  -14.25121
      H1     3.30323    9.63711  -13.83187
       H     3.86743   11.12283   -9.95290
       O     4.21727   10.30218  -10.28669
      H1     5.16449   10.42315  -10.20923
       H     0.30385    5.12497  -16.80920
       O     1.07680    4.84482  -16.28408
      H1     1.56470    5.66594  -16.18853
       H     6.37508    4.32853   -8.54015
       O     6.76012    4.91122   -7.83233
      H1     6.63395    4.33190   -7.05896
       H     5.29908    5.40119  -16.58266
       O     4.59817    4.92267  -17.02983
      H1     3.82330    5.47106  -16.69661
       H     4.04044    1.79812   -7.39228
       O     4.37313    2.63808   -7.69531
      H1     4.25686    3.19465   -6.88962
       H     4.12590    8.62298   -7.65711
       O     3.52920    9.30060   -7.89140
      H1     4.01468    9.74533   -8.62190
       H     5.78792    8.00631  -11.72076
       O     6.68145    7.99283  -11.34424
      H1     6.48818    8.50708  -10.53367
       H     0.31325   11.39264  -13.30583
       O     0.33281   10.43869  -13.13012
      H1    -0.51521   10.31558  -12.66687
       H     0.57024    4.42504   -7.07321
       O     0.16091    4.01284   -6.33908
      H1     0.37756    4.48845   -5.51473
       H     0.55946    7.15312   -4.54396
       O     1.04196    6.65389   -5.14944
      H1     0.75109    6.95830   -6.00592
       H    -0.38063    7.19823  -13.86172
       O    -0.26751    6.50902  -13.23965
      H1     0.54849    6.70877  -12.73448
       H     7.06872    8.62632   -8.04059
       O     7.69263    9.10930   -8.61781
      H1     8.43861    9.50845   -8.15868
       H     4.71398    5.80370  -12.33590
       O     4.59407    4.86836  -12.15223
      H1     5.08270    4.49953  -12.93147
       H    -1.08945    6.45054  -11.00151
       O    -0.84476    5.93145  -10.25235
      H1    -1.53735    6.14142   -9.63647
       H     1.67966    5.50815  -11.89676
       O     1.99882    6.38484  -11.60676
      H1     2.97857    6.13126  -11.55546
       H    -0.10240    4.12961  -15.20299
       O    -0.47823    3.87552  -14.34835
      H1    -0.44864    4.71061  -13.80585
       H     5.33306    2.98495   -9.23847
       O     6.01311    3.33960   -9.84455
      H1     5.68858    3.30007  -10.76133
       H     3.54866    4.30150   -4.98189
       O     3.90717    4.52223   -5.87239
      H1     3.32274    5.21699   -6.16868

