120
frame 3 | Written by MDAnalysis XYZWriter (release 2.4.3)
       H    -0.66653   14.95923   -2.29652
       O    -1.62094   15.04898   -2.23685
      H1    -1.85982   15.98928   -2.45914
       H     1.75969   10.24008   -1.31326
       O     1.77450    9.39903   -1.73551
      H1     2.50575    8.96709   -1.25795
       H    -1.46220   12.61352    3.51127
       O    -1.72849   13.48536    3.12358
      H1    -2.22154   13.28607    2.31648
       H     0.90519   12.38254   -6.85399
       O     1.81720   12.04670   -6.96331
      H1     2.40465   12.79876   -6.90724
       H     0.62686    9.25010   -3.88713
       O     1.17260    8.72277   -4.49935
      H1     0.93246    9.02820   -5.37023
       H    -3.67582    8.81142   -1.03518
       O    -4.24195    8.51382   -0.31990
      H1    -5.00151    8.11314   -0.80850
       H    -2.85656    7.44146   -5.70445
       O    -2.58204    8.36752   -5.49033
      H1    -3.25252    8.84778   -6.00217
       H    -4.34768    9.07437   -4.12353
       O    -4.82455    9.83029   -3.77139
      H1    -5.77245    9.63371   -3.76386
       H     1.12212   12.80451   -0.49233
       O     1.68017   12.02894   -0.59678
      H1     2.39563   12.34464   -1.12284
       H    -3.69698    6.90446    0.58579
       O    -3.52038    6.05636    0.98529
      H1    -2.82984    6.22717    1.63130
       H    -0.42602    5.80131   -2.66602
       O    -0.49608    4.83343   -2.51712
      H1    -1.21765    4.75149   -1.90244
       H     0.19487   14.51025   -7.25969
       O     0.67119   14.71676   -8.07216
      H1     1.56267   14.88738   -7.76265
       H    -3.58903    9.42827   -7.75196
       O    -4.31721    9.71144   -7.17779
      H1    -4.37647   10.67423   -7.17063
       H    -4.43501    9.75206    1.03747
       O    -4.07707   10.23683    1.75653
      H1    -4.50911   11.06244    1.68752
       H    -0.26321    6.21172   -7.00957
       O     0.49655    6.78396   -6.79199
      H1     0.58510    6.80610   -5.82011
       H    -1.09097   12.19121   -5.13400
       O    -0.86218   12.49124   -6.03972
      H1    -1.73763   12.49996   -6.49648
       H    -2.16768   10.48471   -1.50344
       O    -2.42420    9.81264   -2.25247
      H1    -3.28272   10.00311   -2.64806
       H    -4.86592   11.82561   -4.60271
       O    -5.28629   12.70064   -4.83482
      H1    -6.14187   12.48553   -5.18601
       H    -0.12633   14.15097    2.60133
       O     0.71777   14.34881    2.14654
      H1     0.81873   15.24046    2.37291
       H    -0.22076   14.15930    0.60036
       O    -0.66297   13.72830   -0.15548
      H1    -1.12036   14.39775   -0.63899
       H     2.87282   11.61355   -4.97425
       O     3.12838   11.15671   -4.21238
      H1     2.30036   10.71242   -3.94156
       H    -4.29125   14.22745    1.25024
       O    -3.80144   15.01309    1.00206
      H1    -4.41556   15.72179    1.02008
       H    -6.78680   11.32780   -1.72414
       O    -6.96418   10.55786   -1.16988
      H1    -6.80776    9.70704   -1.60429
       H    -1.25559    8.48777    3.10101
       O    -1.65197    9.37478    2.99868
      H1    -2.56313    9.23900    2.72522
       H    -1.28499   10.24564   -6.44375
       O    -0.76591    9.62416   -6.98219
      H1    -1.13403    8.81717   -6.60861
       H     3.82122   13.80258   -4.09180
       O     4.63950   14.14755   -4.36950
      H1     5.35902   13.58308   -3.96019
       H    -2.54662   11.21824    0.65905
       O    -1.84308   11.27582   -0.00297
      H1    -1.40038   12.12606    0.08733
       H     3.38904    6.81606   -3.98842
       O     2.79547    7.14533   -3.31057
      H1     2.04871    7.66418   -3.71161
       H    -0.37856    8.92819    1.33375
       O     0.05496    8.17333    0.94077
      H1    -0.40602    8.12642    0.09835
       H     2.27378   11.15033    2.46572
       O     2.74112   10.95459    1.56677
      H1     2.26741   11.53085    0.90308
       H    -6.04035   12.91378   -3.15598
       O    -6.55956   12.97148   -2.32405
      H1    -6.06557   13.56690   -1.77731
       H     1.69243   15.69447   -2.36806
       O     1.08470   14.95011   -2.49183
      H1     0.83399   15.00632   -3.43406
       H     4.39593    8.55051   -4.63977
       O     4.96366    9.19919   -4.24470
      H1     4.35243    9.96066   -4.12529
       H    -0.46911   15.72953   -5.68009
       O     0.16937   15.07812   -5.34236
      H1    -0.33737   14.19229   -5.40895
       H    -0.00628   12.06429   -2.32491
       O    -0.39034   11.78637   -3.15639
      H1    -1.04276   11.11966   -2.79554
       H    -4.02722   13.89777   -5.38086
       O    -3.72567   14.79750   -5.71729
      H1    -2.77218   14.88400   -5.44637
       H     4.40054   13.98610   -1.03919
       O     4.14395   13.23346   -1.59644
      H1     4.84979   12.99250   -2.21125
       H     0.74748    9.56970   -7.84545
       O     1.52566    9.51237   -8.44175
      H1     2.06928    8.90778   -7.96559
       H    -2.57249   11.98552   -8.56440
       O    -3.03336   12.37507   -7.78483
      H1    -3.29693   13.24047   -8.18353
       H     0.28781    8.13945   -1.91096
       O    -0.52053    7.73496   -2.33763
      H1    -1.09503    8.51597   -2.43735

