120
frame 0 | Written by MDAnalysis XYZWriter (release 2.4.3)
       H    -1.66036   13.46912   -1.41325
       O    -1.49764   13.63034   -0.45695
      H1    -1.81445   14.53276   -0.30974
       H    -4.35592    9.79199   -6.59716
       O    -4.34068    8.92446   -6.25282
      H1    -4.42106    8.34669   -7.05014
       H    -4.15490   12.62772   -6.80000
       O    -3.99169   11.68050   -7.13292
      H1    -3.00826   11.77556   -7.17618
       H    -1.65204   18.30597   -0.90975
       O    -1.11213   19.13929   -0.76542
      H1    -0.98512   19.36789   -1.69213
       H    -5.18348   16.74913   -5.31194
       O    -4.26738   16.71518   -5.23407
      H1    -4.25876   16.28184   -4.33952
       H    -0.69496   11.22367   -1.04862
       O    -0.86903   10.26424   -1.06387
      H1     0.09951    9.90854   -1.08824
       H    -7.68202   11.81559   -8.86950
       O    -6.87979   12.17221   -8.39404
      H1    -6.86389   11.55564   -7.64995
       H    -7.42056   17.09654   -5.55764
       O    -7.02496   16.42132   -5.01366
      H1    -7.34676   15.58036   -5.31346
       H    -6.82045   17.51920   -1.12629
       O    -6.70119   18.17239   -0.42081
      H1    -6.04561   18.78626   -0.76012
       H    -7.36875   16.21716    2.24540
       O    -6.46966   16.22779    2.59761
      H1    -6.26416   17.15854    2.62008
       H    -5.23978   12.29684    0.09743
       O    -5.64245   12.40833   -0.76817
      H1    -6.41591   11.82219   -0.71848
       H    -3.02078   16.46768   -0.61860
       O    -2.18939   16.71851   -1.07740
      H1    -2.29627   16.27227   -1.90564
       H    -8.28856   16.20078   -2.37194
       O    -7.31173   16.34258   -2.40221
      H1    -7.27126   16.48601   -3.31495
       H    -3.25282   18.57163   -4.10055
       O    -2.95814   19.37206   -3.70328
      H1    -3.47668   19.42878   -2.89913
       H   -11.20518   13.87488   -2.56779
       O   -10.30834   14.18054   -2.47900
      H1    -9.94629   13.38096   -2.08944
       H   -10.48556   10.53013   -1.49432
       O   -10.74473   11.21089   -2.17244
      H1    -9.97362   11.16019   -2.83619
       H    -4.89193   14.40589   -2.59099
       O    -4.09373   14.80579   -3.05661
      H1    -3.68472   14.05826   -3.50892
       H    -7.52127   18.73330   -7.83032
       O    -7.11706   18.00202   -7.35022
      H1    -7.31208   17.17283   -7.77187
       H    -3.77897    8.44926   -0.00010
       O    -3.32267    8.57814   -0.83596
      H1    -2.68949    9.32899   -0.67989
       H    -7.88028    9.92678    0.32760
       O    -8.16193   10.89643    0.22047
      H1    -8.60133   11.05264    1.04697
       H     1.33443   14.19493   -2.97815
       O     0.83441   14.09996   -3.80696
      H1     0.22639   13.33291   -3.55469
       H    -2.44499   12.58670   -4.84568
       O    -1.97807   12.64649   -4.03742
      H1    -1.89485   11.69176   -3.89668
       H    -0.65599   15.14955   -7.08315
       O    -1.27403   14.52749   -6.69019
      H1    -2.01648   14.54918   -7.27891
       H    -3.18942   15.90948    3.28673
       O    -3.04879   14.97091    2.89900
      H1    -3.71466   14.95184    2.22220
       H    -8.14178   10.65717   -4.53990
       O    -8.19896   11.25037   -3.76155
      H1    -7.23093   11.18810   -3.44997
       H    -8.12417   14.20015   -4.30416
       O    -7.66588   13.86247   -5.08836
      H1    -7.61176   12.97623   -4.80933
       H   -10.34591   15.57335   -3.61068
       O   -10.06214   16.35372   -4.10811
      H1   -10.68462   17.00357   -3.78481
       H    -1.19532   16.67021   -4.25938
       O    -0.93346   16.01131   -3.55670
      H1    -0.68542   15.28990   -4.14805
       H    -8.74283   13.90555   -6.48178
       O    -9.45029   13.96072   -7.20043
      H1    -9.36166   14.92221   -7.32087
       H    -2.09146    9.06176   -3.63367
       O    -1.61627    9.87539   -3.70776
      H1    -1.32313   10.06849   -2.79792
       H    -5.20384   11.89101   -2.35935
       O    -5.61776   11.46293   -3.15198
      H1    -5.03829   10.69520   -3.19613
       H   -10.68748   15.24646   -1.12729
       O   -11.17493   15.50186   -0.32983
      H1   -11.05514   16.45390   -0.46551
       H    -5.40440   14.18795   -6.30220
       O    -4.45957   14.24901   -6.62440
      H1    -4.22837   15.06386   -6.13003
       H    -3.55418   11.59750    2.04922
       O    -3.86946   12.17766    1.30083
      H1    -2.98748   12.40229    0.91398
       H     0.75442   16.72352   -3.51406
       O     1.44772   17.45781   -3.42074
      H1     1.55096   18.03386   -4.22700
       H    -5.63239   15.76184    1.05643
       O    -5.06560   15.43015    0.35885
      H1    -5.61037   14.69095   -0.03836
       H    -9.59967   15.70642    0.67860
       O    -8.64531   15.53258    0.90549
      H1    -8.77415   14.86252    1.63888
       H    -6.03601    9.25785   -5.94227
       O    -6.88506    9.80474   -6.00663
      H1    -7.52346    9.12362   -5.69223
       H     0.38110   16.94334    0.15851
       O    -0.09944   16.45547    0.86057
      H1    -0.96136   16.53164    0.47632
       H    -4.05114   19.48881    2.03712
       O    -4.84876   18.92249    2.05322
      H1    -4.88367   18.66113    1.11674

