120
frame 11 | Written by MDAnalysis XYZWriter (release 2.4.3)
       H    -4.99047   -9.29681  -17.83055
       O    -5.81863   -9.63764  -18.20333
      H1    -5.91143   -9.09993  -18.95541
       H   -12.63278   -6.05475  -19.31070
       O   -13.39711   -6.67438  -19.20048
      H1   -14.03492   -6.38281  -18.53331
       H   -12.07731  -12.91444  -17.82420
       O   -12.33900  -12.85732  -16.90951
      H1   -11.96593  -11.98402  -16.71384
       H    -9.57857  -12.28550  -18.57870
       O   -10.38169  -12.27458  -19.15439
      H1   -10.06064  -11.92436  -20.00288
       H    -6.95366   -4.34129  -17.11750
       O    -7.17977   -4.43224  -16.16719
      H1    -6.44936   -4.01927  -15.69726
       H    -2.39279   -4.81322  -18.47680
       O    -3.11783   -5.41687  -18.32791
      H1    -3.90276   -5.19449  -18.90874
       H    -8.59519  -12.01001  -10.56473
       O    -8.44383  -11.47007  -11.32329
      H1    -7.51055  -11.18381  -11.15857
       H    -2.21412   -8.12046  -14.92773
       O    -1.32849   -8.46402  -14.96119
      H1    -0.99861   -8.25959  -15.88688
       H   -10.83307  -10.07514  -12.46013
       O   -11.45177  -10.27282  -13.14297
      H1   -10.99770  -10.29210  -14.02498
       H   -14.49069   -9.40176  -13.85878
       O   -13.73542   -8.78994  -13.75821
      H1   -13.05935   -9.34653  -13.34127
       H    -4.87591   -3.79518  -18.02535
       O    -5.59330   -4.35928  -18.46957
      H1    -5.71934   -4.01181  -19.36984
       H    -9.35103  -13.79794  -16.20540
       O    -9.31344  -13.03125  -15.66191
      H1    -8.72881  -13.29939  -14.91446
       H   -13.04992  -15.35445  -14.60287
       O   -12.10252  -15.11525  -14.80108
      H1   -12.03305  -14.56095  -15.56020
       H    -6.42952  -11.93652  -16.43733
       O    -5.85134  -11.66314  -15.68741
      H1    -6.40263  -11.27734  -15.00946
       H   -15.00628   -9.66269  -17.29186
       O   -15.70798  -10.34703  -17.18969
      H1   -15.25727  -11.07945  -16.73414
       H    -8.23101   -9.34167  -17.77065
       O    -9.13939   -9.16863  -17.65415
      H1    -9.23410   -8.28221  -17.26289
       H   -10.02070  -11.43202  -15.97323
       O   -10.72011  -10.72744  -15.96074
      H1   -10.29394  -10.00948  -16.42872
       H    -5.61582   -9.56103  -11.60418
       O    -5.92079   -9.94129  -10.74430
      H1    -6.55041   -9.25382  -10.46674
       H   -10.54994   -6.56589  -16.88534
       O   -10.97350   -7.27430  -16.33290
      H1   -11.87295   -7.12645  -16.40400
       H    -9.96663   -6.03415  -12.53943
       O    -9.74725   -6.23059  -11.61314
      H1   -10.68439   -6.12613  -11.26781
       H   -12.32627   -9.19930  -19.46219
       O   -12.30820   -9.59548  -18.58207
      H1   -11.63899  -10.28842  -18.66384
       H    -6.76168  -13.23865  -12.98578
       O    -7.63271  -13.43972  -13.39917
      H1    -8.22845  -13.12791  -12.70354
       H    -9.36746  -10.03830  -11.29358
       O    -9.79868   -9.22071  -11.04358
      H1    -9.34527   -8.43950  -11.44441
       H   -12.42537   -3.14708  -16.39114
       O   -12.41516   -3.92284  -16.97041
      H1   -12.66890   -3.64427  -17.85435
       H    -7.05815   -2.79588  -18.64070
       O    -7.99269   -2.52064  -18.50468
      H1    -8.31535   -3.26261  -17.92557
       H    -3.78063  -13.68147  -16.28834
       O    -4.28002  -14.11371  -15.62995
      H1    -5.13518  -13.66429  -15.72121
       H    -7.95798   -6.15636  -16.54718
       O    -8.01431   -7.07985  -16.20438
      H1    -8.04746   -6.93251  -15.28276
       H    -3.54198  -12.33789  -19.11247
       O    -4.39819  -11.89541  -19.32677
      H1    -4.33036  -11.05513  -18.90088
       H    -4.12018  -11.19810  -16.12014
       O    -3.22431  -10.90838  -15.83437
      H1    -3.15244  -10.00002  -16.07245
       H   -10.95163  -12.21246  -12.75663
       O   -10.66461  -13.14488  -12.69313
      H1   -10.82373  -13.52022  -13.58079
       H   -10.95657   -5.97697  -14.67317
       O   -10.46136   -5.32310  -14.17719
      H1    -9.69697   -5.19043  -14.72185
       H   -10.57205   -4.40453  -17.11514
       O   -10.02356   -5.10955  -17.53862
      H1   -10.33545   -5.19091  -18.49051
       H    -7.90763  -15.56599  -16.94646
       O    -8.90688  -15.57334  -16.82917
      H1    -8.94271  -16.29037  -16.12708
       H    -3.94841   -9.66002  -13.27032
       O    -4.63685   -9.01331  -13.13953
      H1    -4.92580   -8.71419  -14.02433
       H    -7.03710  -16.32376  -18.96165
       O    -6.49577  -15.72220  -18.42112
      H1    -6.18254  -16.27637  -17.69897
       H    -2.80698   -4.77605  -15.41243
       O    -3.56155   -5.33835  -15.66790
      H1    -3.50790   -5.41108  -16.58403
       H    -3.28083   -7.36005  -17.62416
       O    -3.29442   -8.32755  -17.57510
      H1    -2.83462   -8.50814  -18.45048
       H    -5.04675   -6.93314  -15.72816
       O    -5.39922   -7.78167  -15.65947
      H1    -6.30244   -7.77962  -15.95842
       H    -6.71760  -13.72490  -18.42722
       O    -6.93913  -12.76124  -18.24798
      H1    -6.07212  -12.28957  -18.30173
       H   -12.93824   -8.97463  -17.02976
       O   -13.53739   -8.37275  -16.49751
      H1   -13.57758   -8.73431  -15.56287

