120
frame 0 | Written by MDAnalysis XYZWriter (release 2.4.3)
       H    -5.14704    7.69625   -2.80916
       O    -5.99318    7.53979   -2.35826
      H1    -5.93141    7.75775   -1.44108
       H   -12.46922    8.70330   -3.25641
       O   -12.03956    7.99491   -2.74377
      H1   -11.57873    7.58322   -3.44869
       H   -11.56473   10.10209    0.52765
       O   -11.98388   10.75312    1.10192
      H1   -12.55527   11.27967    0.49550
       H    -7.36875   16.21716    2.24540
       O    -6.46966   16.22779    2.59761
      H1    -6.26416   17.15854    2.62008
       H    -5.07082    7.51833    1.99718
       O    -4.75947    8.32121    1.67520
      H1    -4.86628    8.96357    2.46728
       H    -5.23978   12.29684    0.09743
       O    -5.64245   12.40833   -0.76817
      H1    -6.41591   11.82219   -0.71848
       H    -8.28856   16.20078   -2.37194
       O    -7.31173   16.34258   -2.40221
      H1    -7.27126   16.48601   -3.31495
       H   -11.20518   13.87488   -2.56779
       O   -10.30834   14.18054   -2.47900
      H1    -9.94629   13.38096   -2.08944
       H    -9.05718   14.97139    3.49340
       O    -9.12573   14.09243    3.12534
      H1    -8.39999   13.63331    3.53167
       H    -5.71114    6.89938    3.63046
       O    -5.95960    5.98329    3.36859
      H1    -5.72161    6.01426    2.43079
       H    -6.43035    8.41813    0.83939
       O    -7.28179    8.29223    0.41451
      H1    -7.69698    7.64960    0.95182
       H   -10.38947    8.20587    0.23045
       O   -10.50469    8.92173   -0.41117
      H1   -10.96040    8.57800   -1.17356
       H   -10.48556   10.53013   -1.49432
       O   -10.74473   11.21089   -2.17244
      H1    -9.97362   11.16019   -2.83619
       H    -4.89193   14.40589   -2.59099
       O    -4.09373   14.80579   -3.05661
      H1    -3.68472   14.05826   -3.50892
       H   -11.83520    6.51732    3.07307
       O   -11.69154    7.17626    2.32287
      H1   -12.19638    6.69856    1.63002
       H    -3.77897    8.44926   -0.00010
       O    -3.32267    8.57814   -0.83596
      H1    -2.68949    9.32899   -0.67989
       H    -7.88028    9.92678    0.32760
       O    -8.16193   10.89643    0.22047
      H1    -8.60133   11.05264    1.04697
       H    -8.19338    8.40150    3.87376
       O    -9.12946    8.56468    3.81914
      H1    -9.18558    9.34774    3.23271
       H    -6.00615    8.71120    5.08299
       O    -6.28910    8.50788    4.15058
      H1    -6.39812    9.39380    3.72664
       H    -9.69989    6.42490    2.16177
       O    -8.87258    6.38469    1.67809
      H1    -8.90870    5.48891    1.29146
       H    -8.14178   10.65717   -4.53990
       O    -8.19896   11.25037   -3.76155
      H1    -7.23093   11.18810   -3.44997
       H    -9.47634   11.91526    2.79809
       O    -9.58741   11.01771    2.40167
      H1   -10.43559   11.09340    1.84737
       H    -8.12417   14.20015   -4.30416
       O    -7.66588   13.86247   -5.08836
      H1    -7.61176   12.97623   -4.80933
       H    -6.90082   12.92281    4.85209
       O    -6.96720   11.99864    4.52540
      H1    -7.76218   11.56204    5.06936
       H    -5.15028   14.03749    4.47447
       O    -5.98716   14.49615    4.53440
      H1    -5.98077   15.04020    3.73276
       H   -13.00636   10.00434    2.93468
       O   -12.98313    9.41440    3.68648
      H1   -12.54616    8.64223    3.24295
       H    -5.20384   11.89101   -2.35935
       O    -5.61776   11.46293   -3.15198
      H1    -5.03829   10.69520   -3.19613
       H    -9.08265    8.37648   -5.30325
       O    -9.70742    8.94547   -4.74285
      H1    -9.43065    8.65098   -3.83297
       H    -9.00547   12.02308    7.04195
       O    -9.27453   12.17592    6.12831
      H1    -9.76498   11.37299    6.02545
       H   -10.68748   15.24646   -1.12729
       O   -11.17493   15.50186   -0.32983
      H1   -11.05514   16.45390   -0.46551
       H    -7.74468    7.63395   -2.39637
       O    -8.68287    7.65375   -2.38601
      H1    -8.87301    7.85365   -1.45892
       H    -3.55418   11.59750    2.04922
       O    -3.86946   12.17766    1.30083
      H1    -2.98748   12.40229    0.91398
       H    -5.63239   15.76184    1.05643
       O    -5.06560   15.43015    0.35885
      H1    -5.61037   14.69095   -0.03836
       H   -13.88492   13.22690    1.40166
       O   -13.72615   12.75068    2.18849
      H1   -12.76411   12.57467    2.16235
       H    -9.55664    9.22460    5.25795
       O    -9.85717    9.50921    6.14362
      H1    -9.43956    8.87924    6.76443
       H    -9.59967   15.70642    0.67860
       O    -8.64531   15.53258    0.90549
      H1    -8.77415   14.86252    1.63888
       H   -11.04320    5.23185   -2.90344
       O   -10.31057    5.63890   -3.35206
      H1    -9.88044    6.28148   -2.76033
       H    -4.01659   11.04998    4.13611
       O    -3.86635   10.31613    3.54913
      H1    -2.97012    9.98930    3.72760
       H   -13.55465   10.43677   -0.74234
       O   -13.80209   11.37967   -0.78361
      H1   -13.50569   11.69128   -1.63619
       H    -5.52641    5.24597    0.15101
       O    -5.03492    5.84084    0.68731
      H1    -4.17008    5.49401    0.72316

