120
frame 0 | Written by MDAnalysis XYZWriter (release 2.4.3)
       H     6.97636    3.88060   17.11847
       O     6.33991    4.56359   16.85638
      H1     5.87374    4.76205   17.71094
       H     6.51710   13.27345   13.18577
       O     6.24050   12.61813   13.82809
      H1     7.11426   12.22297   14.00660
       H     3.38950   11.99039   18.79610
       O     2.89033   12.26731   19.52429
      H1     3.07528   13.22059   19.66684
       H     5.55583    8.66749   14.77563
       O     5.63453    7.96194   15.43357
      H1     5.54419    7.12344   14.94698
       H     0.89763   15.44152   17.33916
       O     1.72232   15.49558   17.86625
      H1     1.31107   15.32161   18.76215
       H     6.79572   11.37506   17.15806
       O     7.48938   11.63582   17.79319
      H1     7.01455   11.38816   18.64541
       H     0.21800   10.53150   14.08619
       O    -0.03594   11.12445   13.32462
      H1     0.64367   11.01650   12.68795
       H     2.42900    9.63162   13.75483
       O     3.16504   10.13609   13.39699
      H1     3.34536   10.80387   14.03839
       H     3.71172    9.74069   17.41824
       O     4.17656   10.56957   17.48771
      H1     3.59338   11.14668   16.98175
       H     2.85710   13.19841   13.43937
       O     3.01722   14.10282   13.14265
      H1     3.11230   14.06110   12.16617
       H     3.16644    7.99045   10.10936
       O     3.49649    8.69827   10.69629
      H1     3.19692    8.30524   11.53473
       H     2.73238    6.33938   12.02093
       O     3.24004    6.78379   12.73443
      H1     2.59047    7.40241   13.04184
       H    -1.03596   15.14646   15.95428
       O    -0.09958   15.20004   15.77383
      H1    -0.15717   14.65532   14.94102
       H     4.35157    5.01416   15.15686
       O     3.65556    4.58368   15.72103
      H1     4.17749    4.10352   16.34427
       H     9.13263   11.26403   13.68309
       O     8.78258   11.82120   14.42465
      H1     9.13029   12.67338   14.08659
       H    -0.37441    6.31858   15.90275
       O    -0.41506    6.37992   14.90703
      H1    -1.33477    6.43281   14.58814
       H     7.32529    8.41903   13.35752
       O     7.92422    7.67887   13.15672
      H1     8.51266    7.78485   13.88524
       H     1.18827   10.97154   16.86735
       O     0.90374   10.20228   16.33278
      H1     1.63825    9.58246   16.54791
       H     0.67555    4.84757   14.35062
       O     0.98870    4.00322   14.70844
      H1     1.94026    4.24734   14.88361
       H    -2.21256   13.82632   18.42768
       O    -1.49739   14.00843   17.82187
      H1    -0.83791   13.23798   17.86545
       H     6.22114   15.40557   15.06459
       O     7.17073   15.30930   15.10027
      H1     7.40753   16.19887   14.82518
       H     3.38714    6.27993   19.56859
       O     2.51402    6.78463   19.33615
      H1     2.69143    7.66530   19.80514
       H    10.05717   11.33463   15.46578
       O    10.81783   10.95369   16.07211
      H1    10.19955   10.29027   16.49326
       H    -0.96277    6.99026   18.39952
       O    -0.23902    6.80647   17.83232
      H1     0.25803    6.09863   18.24488
       H     2.61137    7.54515   17.79082
       O     2.86438    8.15464   17.09525
      H1     3.56892    7.68414   16.67552
       H     7.87033   10.04683   15.29788
       O     8.08051    9.14881   15.72784
      H1     7.48201    8.44557   15.46112
       H     8.86629    4.60739   15.00414
       O     9.49445    5.24714   15.23126
      H1     8.94471    6.02941   15.08291
       H     4.10576   14.47241   17.57014
       O     4.81332   13.96020   17.95069
      H1     5.57818   14.38644   17.52333
       H    -0.67187    9.47007   17.91737
       O    -0.52981    9.51518   18.86578
      H1    -0.10396    8.64317   19.00866
       H     2.38342   12.63570   16.14753
       O     3.11401   12.38306   15.61604
      H1     3.70413   13.16805   15.61996
       H     1.32833   12.95335   18.23295
       O     0.82577   12.74014   17.40199
      H1     0.66128   13.63473   16.97927
       H     0.24599    7.95180   12.59574
       O     0.91493    8.18019   13.24430
      H1     0.50792    7.71936   14.06772
       H    -2.36484    9.54762   14.34783
       O    -2.22803    9.58828   15.32047
      H1    -1.31402    9.73759   15.37554
       H     6.35764    4.99251   15.19465
       O     6.14172    5.53713   14.39149
      H1     6.97234    5.54131   13.84435
       H     4.97495    9.38547   12.82586
       O     5.86816    9.58895   13.11116
      H1     5.72647   10.48901   13.45702
       H     3.73244   15.09566   14.54885
       O     4.21900   15.46513   15.29845
      H1     4.07502   16.43575   15.12863
       H    10.47100   10.73876   19.02107
       O    10.91465   11.17614   19.80870
      H1    11.60214   11.72119   19.41166
       H     6.86323    8.08272   17.71297
       O     7.36685    7.29190   18.03633
      H1     6.89102    6.49602   17.61918
       H     7.54963   14.72196   16.75928
       O     7.35670   14.48137   17.69513
      H1     7.53433   13.55058   17.60793
       H     9.93335    8.63016   18.29802
       O     9.62991    9.53536   18.21631
      H1     8.74306    9.43718   17.82291

