120
frame 1 | Written by MDAnalysis XYZWriter (release 2.4.3)
       H     6.10592    0.96299   -3.53010
       O     5.23297    1.36044   -3.45497
      H1     4.81377    0.47200   -3.44671
       H     1.85058    4.57062   -8.18103
       O     1.44286    5.51139   -8.02434
      H1     0.49577    5.48716   -8.25992
       H    -0.63380   -0.26769   -0.68254
       O    -1.33471   -0.56532   -0.11754
      H1    -1.84192    0.29255    0.20006
       H     2.10720    1.76726   -9.19494
       O     1.28520    2.36570   -9.37354
      H1     1.04508    2.02070  -10.26651
       H    -1.99841    3.72848   -3.85559
       O    -1.04761    3.48683   -3.85291
      H1    -0.58160    4.29652   -3.58422
       H    -4.37837    4.66550   -3.97357
       O    -3.45552    4.89927   -4.18872
      H1    -3.53161    5.15846   -5.12148
       H    -0.58545   -2.44982   -6.23669
       O     0.01919   -3.12940   -5.98301
      H1    -0.04105   -3.63547   -6.79909
       H    -4.17111    0.30283   -5.21882
       O    -3.44457   -0.26484   -4.92664
      H1    -2.67859    0.40389   -4.84227
       H    -3.70932   -0.01722   -3.10966
       O    -3.88006    0.50732   -2.27988
      H1    -3.05725    0.39202   -1.82623
       H    -6.14137    4.22927   -2.67536
       O    -5.87899    4.03591   -3.58581
      H1    -6.47327    3.32944   -3.81087
       H    -0.74860    5.87314   -2.30509
       O    -0.00937    5.74568   -2.91269
      H1     0.76038    5.68886   -2.26816
       H     0.88865   -1.76861   -8.53957
       O     0.67668   -1.33661   -9.34056
      H1     0.51212   -1.95272  -10.05201
       H     1.95646   -2.81429   -6.52574
       O     2.58650   -2.13404   -6.72372
      H1     3.32719   -2.49054   -6.22561
       H    -1.27878    6.32285    0.30460
       O    -1.63975    6.22870   -0.58602
      H1    -1.87108    7.16454   -0.71592
       H    -3.41966   -2.38419   -5.16635
       O    -3.57021   -3.33211   -5.10534
      H1    -4.22158   -3.48498   -5.87215
       H     3.81099   -1.24941   -2.46142
       O     4.16840   -1.15019   -3.35312
      H1     3.28067   -1.10627   -3.79709
       H    -2.64422   -0.82086   -6.49047
       O    -1.80730   -1.14304   -6.80496
      H1    -1.44370   -0.43191   -7.29938
       H    -0.30479   -1.61194    0.96202
       O     0.35033   -2.29537    1.29528
      H1     0.39535   -2.12165    2.25827
       H    -3.99569    7.53254   -4.40115
       O    -3.75469    7.46721   -3.43745
      H1    -3.51736    6.55246   -3.24619
       H     2.96559    4.76143   -0.75149
       O     2.17771    5.37572   -0.88186
      H1     2.17102    5.75657    0.02149
       H    -3.79446    2.13534   -6.82953
       O    -4.49086    1.90211   -6.17290
      H1    -5.07346    1.26414   -6.62164
       H     1.38643    3.78764   -0.02712
       O     1.46053    2.98280    0.44914
      H1     0.95274    2.37445   -0.03860
       H     0.08831    1.32226   -8.61799
       O    -0.55717    0.66688   -8.29978
      H1    -0.16198   -0.02610   -8.93518
       H    -5.53595    3.51192   -7.22371
       O    -6.01010    3.88874   -7.95252
      H1    -5.31053    4.08680   -8.59921
       H    -2.98139    3.53941   -1.24900
       O    -2.73966    3.76924   -0.30150
      H1    -2.23624    4.58704   -0.50356
       H    -5.24340   -1.16738   -1.83058
       O    -6.02852   -1.72180   -2.02596
      H1    -5.61887   -2.61257   -2.12158
       H    -0.13086    4.65250   -6.23564
       O    -0.91900    4.12119   -6.40767
      H1    -1.12179    3.69073   -5.58996
       H     0.26819    6.57901   -4.52121
       O     0.58228    7.01445   -5.32803
      H1    -0.19717    7.43687   -5.68884
       H     1.32100   -1.60336   -3.60541
       O     1.65203   -0.97659   -4.30127
      H1     1.82838   -1.50378   -5.13533
       H     0.29113   -3.95115   -3.06363
       O    -0.24107   -3.17349   -3.27283
      H1    -0.06092   -3.07110   -4.20280
       H    -2.14211    5.29926   -6.85235
       O    -3.10286    5.48277   -6.78519
      H1    -3.18413    6.04676   -7.57423
       H    -0.19156    0.21440   -4.59754
       O    -0.97492    0.58613   -4.08506
      H1    -0.82389    1.53547   -4.09425
       H     3.36366   -0.34665    0.08927
       O     3.60664    0.47283   -0.47661
      H1     4.44166    0.63866   -0.05874
       H    -4.97443    0.85228   -0.00578
       O    -5.86127    0.49362    0.08438
      H1    -6.08173    0.91436    0.93286
       H    -2.79046    3.54435   -7.73870
       O    -2.79434    2.61438   -8.08006
      H1    -1.90940    2.26337   -7.87220
       H    -2.63708    1.18727    1.91572
       O    -2.74292    1.42282    0.97112
      H1    -2.20368    2.26546    0.92733
       H     0.46946    0.82529   -2.49148
       O     0.71242    0.92060   -1.59580
      H1     1.65492    1.02189   -1.58709
       H    -6.20125   -0.68712   -6.55676
       O    -6.37729    0.19914   -6.27518
      H1    -6.45931   -0.04094   -5.29097
       H    -1.44437   -2.91543   -1.98132
       O    -2.23040   -2.94505   -1.42187
      H1    -2.07783   -2.15350   -0.90981
       H     2.97586    4.92947   -4.83469
       O     2.78413    4.33177   -5.59749
      H1     2.35236    4.87897   -6.29877

