120
frame 6 | Written by MDAnalysis XYZWriter (release 2.4.3)
       H    -5.03461   -8.94280    5.64035
       O    -5.52679   -8.32028    6.13371
      H1    -6.40859   -8.66673    6.27472
       H    -7.26195   -9.77052    2.04288
       O    -7.78704  -10.05802    1.26465
      H1    -8.07215   -9.30704    0.80348
       H   -14.94047   -9.28427    0.96489
       O   -15.69498   -8.77464    0.72433
      H1   -15.37031   -8.22264   -0.08130
       H    -8.16751   -5.85581    6.16542
       O    -8.47363   -4.93833    5.96639
      H1    -7.68141   -4.41022    5.88507
       H    -8.34190  -12.98522    6.55952
       O    -8.22556  -12.57547    5.68922
      H1    -9.00035  -12.90247    5.16883
       H    -9.28777  -10.24150    2.67529
       O   -10.10086  -10.05059    3.16782
      H1   -10.66554  -10.83566    3.08398
       H   -10.37737   -5.28840    3.16371
       O   -10.32042   -4.91556    4.09853
      H1    -9.40077   -4.78073    4.38204
       H    -9.97925  -14.38047    4.21352
       O    -9.85256  -13.53768    3.75368
      H1    -9.29863  -13.64039    3.00557
       H    -9.89574  -13.35558   -1.07391
       O    -9.20858  -12.75992   -1.20423
      H1    -9.67428  -11.89810   -1.45663
       H    -5.64595   -6.72119    5.58136
       O    -5.59600   -5.69888    5.57934
      H1    -6.26138   -5.38330    4.95702
       H    -8.19851   -6.25122    0.32682
       O    -8.43242   -5.35588    0.53926
      H1    -7.97222   -5.07966    1.34128
       H   -14.51999   -3.96671    2.73767
       O   -15.22416   -3.75026    2.05782
      H1   -15.24281   -4.41664    1.33474
       H   -12.44921  -11.81468    4.14146
       O   -12.26659  -12.02697    3.23100
      H1   -11.39380  -12.50512    3.23661
       H   -14.98993  -13.94967    1.81514
       O   -14.42693  -13.21922    1.38155
      H1   -13.64089  -13.12479    1.92124
       H   -17.22262   -9.16645    3.53155
       O   -17.26449   -9.63378    2.69345
      H1   -16.56857   -9.26053    2.13092
       H   -12.03495  -11.92681    6.32721
       O   -12.18620  -11.09190    5.84163
      H1   -11.28165  -10.66811    5.89859
       H   -12.37827   -4.68617    4.33957
       O   -13.26681   -4.37544    4.05242
      H1   -13.87537   -4.83191    4.67284
       H    -8.76182  -10.62396    5.74741
       O    -9.42430   -9.89455    5.91218
      H1    -9.81173   -9.63593    5.03364
       H    -8.80513   -7.63799   -1.41276
       O    -8.11376   -7.65538   -0.64629
      H1    -7.29567   -7.52452   -1.12073
       H   -11.11205   -6.27417    5.09613
       O   -11.76487   -6.97837    5.14572
      H1   -11.61857   -7.28133    4.24638
       H   -13.59848   -9.21259    2.82917
       O   -14.10130  -10.00262    2.74006
      H1   -13.39855  -10.64701    2.51736
       H   -11.91630   -6.48496    8.08695
       O   -12.69909   -6.75984    7.60796
      H1   -12.44027   -6.95136    6.64673
       H   -11.35873   -3.68740    1.13859
       O   -11.26074   -2.78624    0.79808
      H1   -12.04720   -2.28807    1.07495
       H   -11.71267   -5.90873    0.64758
       O   -11.12990   -5.43073    1.26075
      H1   -10.30316   -5.26558    0.78865
       H    -8.69577   -8.74970   -3.49360
       O    -9.28523   -8.06438   -3.11289
      H1    -9.31594   -7.35489   -3.74212
       H    -6.17812   -4.73345    2.09363
       O    -7.00311   -4.55619    2.66120
      H1    -7.08502   -3.61285    2.83877
       H   -15.02885  -11.59642    4.14235
       O   -15.30747  -12.33441    4.68735
      H1   -15.63037  -11.95130    5.55064
       H    -7.90980  -12.44000    1.64164
       O    -8.42162  -13.21378    1.41247
      H1    -8.74769  -12.90048    0.58495
       H   -10.94796   -8.78029    2.60379
       O   -11.67917   -8.19397    2.52349
      H1   -11.69840   -7.72497    1.66534
       H   -11.94404  -13.74121   -1.81829
       O   -11.69901  -14.23055   -1.03305
      H1   -12.44422  -14.14414   -0.49150
       H   -17.11550   -5.81680    1.62996
       O   -16.42752   -6.39704    1.88591
      H1   -16.55515   -7.27351    1.53846
       H   -11.98311  -13.13978    8.18738
       O   -11.47447  -13.27492    7.35362
      H1   -12.10062  -13.62544    6.72617
       H   -15.44077  -10.46241    7.11950
       O   -14.82409  -11.21594    7.06284
      H1   -13.99548  -10.82560    6.68633
       H   -14.06554  -13.43091    5.35829
       O   -13.46054  -14.13845    5.65825
      H1   -14.10050  -14.67179    6.20907
       H    -5.96865  -10.25636    3.63718
       O    -6.40793   -9.45887    3.42684
      H1    -5.76817   -8.75844    3.27845
       H    -8.02906   -7.63638    7.97307
       O    -8.15273   -7.68880    7.03419
      H1    -8.55704   -8.56055    6.90740
       H   -15.96881   -6.33749    5.20122
       O   -16.74866   -6.59419    4.66484
      H1   -16.43777   -6.75706    3.75294
       H   -14.10404   -6.05232    6.72869
       O   -14.77863   -5.57648    6.11102
      H1   -14.82272   -4.76925    6.61828
       H   -10.36390   -9.56255   -2.62114
       O   -10.98355  -10.08351   -2.09491
      H1   -11.80421  -10.13117   -2.63729
       H   -12.81384   -6.74331   -1.35529
       O   -12.27266   -7.13413   -0.67414
      H1   -11.65684   -7.72709   -1.12230

