120
frame 0 | Written by MDAnalysis XYZWriter (release 2.4.3)
       H     7.40353   10.38724   -9.80444
       O     7.07043   11.17761  -10.19990
      H1     6.97289   11.73748   -9.39929
       H     9.75457   13.19458   -8.82031
       O     9.95232   13.57419   -7.96187
      H1    10.67843   14.23743   -8.17978
       H     8.43657   15.73305   -4.46857
       O     9.19132   15.73227   -3.87630
      H1     8.95116   16.28139   -3.13651
       H     6.37811    8.72617   -4.05030
       O     6.00343    8.08399   -4.65999
      H1     5.08149    8.28204   -4.52242
       H     6.67567   14.56445   -1.98511
       O     6.98582   13.67231   -1.84748
      H1     6.69958   13.33206   -2.74841
       H     3.36064   15.86587   -1.97497
       O     3.78138   16.73849   -2.21938
      H1     3.13965   17.08116   -2.90283
       H     4.31460   11.72396   -1.14290
       O     3.48641   11.83967   -1.63650
      H1     2.92726   11.12456   -1.38657
       H    12.07262   15.93058   -7.88450
       O    12.27421   15.36609   -7.17846
      H1    11.84470   15.84020   -6.42675
       H     5.90882    7.61288   -6.60474
       O     5.84025    7.48411   -7.55884
      H1     5.96073    6.49181   -7.59936
       H    11.14224   15.64881  -10.96419
       O    11.31728   15.70773   -9.98573
      H1    12.18527   16.14116   -9.95844
       H     1.46855   15.66052   -6.91072
       O     0.88273   16.00725   -7.56420
      H1     0.39408   16.65283   -7.05694
       H    11.13071   14.15090   -3.75060
       O    11.58685   13.27715   -3.95044
      H1    10.90795   12.75771   -4.35418
       H     3.11314   16.06815   -5.05740
       O     2.52592   15.46415   -5.55679
      H1     1.93183   15.19050   -4.82106
       H     4.66604   10.47213   -6.20769
       O     5.50966   10.85221   -6.09199
      H1     5.96518   10.20043   -5.58517
       H     5.01351   17.58339   -7.93771
       O     4.85060   18.52575   -7.87575
      H1     3.95129   18.45143   -8.20323
       H     3.86743   11.12283   -9.95290
       O     4.21727   10.30218  -10.28669
      H1     5.16449   10.42315  -10.20923
       H     9.57095   18.32496   -6.39746
       O     8.93478   19.04106   -6.30200
      H1     8.80699   19.36312   -7.23009
       H     4.66686   12.14660   -3.19199
       O     5.40705   12.38976   -3.68872
      H1     5.17269   12.02873   -4.56683
       H     8.47073   13.95469   -1.57036
       O     9.36248   14.07070   -1.14511
      H1     9.74272   14.70339   -1.85424
       H     9.39552   11.41469   -6.06961
       O     9.42230   12.11267   -5.34425
      H1     8.72398   12.68965   -5.67458
       H     5.37666   16.39883   -1.93714
       O     6.37492   16.28029   -1.95561
      H1     6.54237   16.91463   -2.73158
       H     4.12590    8.62298   -7.65711
       O     3.52920    9.30060   -7.89140
      H1     4.01468    9.74533   -8.62190
       H     8.43583   10.92771   -4.45519
       O     7.92003   10.13759   -4.42597
      H1     8.58470    9.45332   -4.42497
       H     6.42039    9.91176   -1.75323
       O     6.36580    8.99079   -2.05171
      H1     7.09913    8.58364   -1.52006
       H    10.61326   16.56176   -5.01355
       O    11.26263   17.12193   -5.33904
      H1    11.70460   17.22536   -4.47117
       H     6.08533   15.85660   -9.28612
       O     6.29496   15.73232   -8.34338
      H1     6.69614   14.86182   -8.15120
       H     9.30634   12.96189  -11.24279
       O     9.75685   12.50062  -10.53345
      H1     9.06342   11.89198  -10.22482
       H     8.26727   13.15345  -13.45985
       O     8.12319   13.07167  -12.50002
      H1     7.18136   13.11344  -12.29522
       H     7.06872    8.62632   -8.04059
       O     7.69263    9.10930   -8.61781
      H1     8.43861    9.50845   -8.15868
       H     7.30014   16.86959  -10.86323
       O     7.10284   17.70074  -10.41247
      H1     7.14925   18.22174  -11.24907
       H     6.81470   13.53600   -6.47889
       O     7.13515   13.78913   -5.66896
      H1     6.26486   13.75197   -5.20748
       H     4.71992   14.68702  -10.77866
       O     5.57986   14.97594  -11.09705
      H1     5.33650   15.82893  -11.62121
       H     3.37638   12.96579   -7.81600
       O     3.89614   13.19419   -8.56221
      H1     3.79721   14.12792   -8.74498
       H     6.40745   11.76548   -7.48451
       O     6.36056   12.59463   -7.97099
      H1     5.45125   12.81261   -7.95800
       H    10.60241   10.25591   -7.54369
       O     9.73089   10.69020   -7.69380
      H1     9.98120   11.58404   -7.77192
       H    13.18867   11.35329   -6.79015
       O    12.37807   11.00478   -6.42444
      H1    12.30671   10.06224   -6.70101
       H     4.79392   18.14594   -4.86595
       O     3.92120   18.08155   -5.30537
      H1     4.21393   18.33458   -6.22051
       H     2.90589   13.51210   -5.57689
       O     3.11461   12.55125   -5.72858
      H1     2.49609   12.16422   -4.99711
       H    10.17104   17.03738   -9.32572
       O     9.71844   17.83587   -8.98052
      H1     8.75511   17.73149   -9.21562
       H     6.88202   18.44550   -4.94699
       O     6.38414   18.25378   -4.19399
      H1     6.33770   19.13280   -3.79189

