120
frame 11 | Written by MDAnalysis XYZWriter (release 2.4.3)
       H   -14.02352  -10.72591   19.77718
       O   -14.39069  -11.29868   19.10163
      H1   -15.11311  -10.66193   18.88978
       H   -12.32147   -8.46099   17.28530
       O   -13.20138   -8.39928   17.76258
      H1   -13.11975   -7.55335   18.20817
       H   -10.74907   -0.38595   12.47591
       O   -11.07146   -0.86166   13.24851
      H1   -10.77282   -0.56650   14.09080
       H   -16.71023   -4.00245   15.10823
       O   -15.73597   -3.85628   15.09073
      H1   -15.64817   -3.47474   15.98502
       H   -12.29180    1.33141   18.07294
       O   -11.32371    1.34462   17.80051
      H1   -10.79778    1.09010   18.53937
       H   -13.28258   -2.96467   16.16914
       O   -12.45397   -3.05565   15.68290
      H1   -12.59004   -3.36583   14.77938
       H   -13.56561   -8.81090   16.05632
       O   -13.82103   -9.44655   15.39930
      H1   -14.18648  -10.18834   15.86944
       H   -10.81436   -4.71606   18.67766
       O   -11.25536   -5.29926   19.35995
      H1   -10.74576   -6.18475   19.46155
       H   -10.05855   -8.03533   16.95944
       O   -10.31119   -8.74484   16.35689
      H1    -9.89604   -8.76630   15.51140
       H   -13.94810  -11.85843   17.55350
       O   -14.01522  -12.00130   16.57255
      H1   -13.35941  -12.75236   16.38338
       H   -16.59197  -10.38468   13.76575
       O   -16.45490   -9.78001   14.52458
      H1   -15.54005   -9.56337   14.59671
       H    -6.59388   -4.44137   12.20987
       O    -6.70301   -4.44940   13.15346
      H1    -5.83541   -4.23585   13.60112
       H   -16.94392   -6.99612   14.57248
       O   -17.19989   -6.73879   13.70805
      H1   -17.74557   -7.45488   13.35837
       H   -12.49557   -9.96664   14.26365
       O   -12.15764  -10.60650   13.60549
      H1   -11.54577  -10.07847   13.08696
       H    -7.59628   -0.33426   15.66902
       O    -7.03356    0.34361   16.13726
      H1    -6.92679    0.95596   15.45399
       H    -6.17634   -8.29707   15.87749
       O    -6.42413   -7.33614   15.88475
      H1    -7.00412   -7.24481   15.14695
       H    -5.09846   -7.86377   17.99264
       O    -5.32270   -8.70925   18.35828
      H1    -5.96449   -9.10629   17.83224
       H   -13.81657    2.30960   19.14861
       O   -13.80101    1.38471   18.90221
      H1   -14.03037    0.83506   19.73072
       H   -11.20494  -11.62278   14.61646
       O   -10.76555  -12.19227   15.23267
      H1   -10.69103  -11.76302   16.07158
       H    -8.36282   -1.51933   18.91667
       O    -8.87981   -1.62091   18.14595
      H1    -8.93380   -0.87204   17.54788
       H    -2.16785   -9.10777   18.20249
       O    -2.70932   -9.41086   18.97803
      H1    -3.64268   -9.26235   18.69006
       H    -4.51752   -2.76421   13.89993
       O    -4.55166   -3.19930   14.77453
      H1    -5.39517   -2.91365   15.14709
       H    -7.87200   -5.43468   13.82017
       O    -8.49420   -6.13264   14.23202
      H1    -9.07613   -5.58571   14.76457
       H    -6.75109  -11.10534   15.80781
       O    -6.76503  -10.14563   15.95898
      H1    -7.41921   -9.71565   15.39691
       H   -15.99822   -8.59461   18.84571
       O   -16.05083   -9.25138   18.10620
      H1   -15.12256   -9.24473   17.72825
       H   -15.61788   -6.53624   16.43376
       O   -16.34848   -7.21042   16.31683
      H1   -16.19789   -7.88521   16.99927
       H   -12.61890   -5.09284   13.78900
       O   -12.05197   -4.37786   13.41890
      H1   -11.15040   -4.64710   13.68456
       H   -14.49116   -2.68885   18.16653
       O   -14.62428   -2.65929   17.20455
      H1   -15.12538   -1.84525   16.99051
       H    -9.69835   -3.03977   17.31528
       O   -10.02913   -3.96145   17.26171
      H1   -10.71436   -3.83781   16.63961
       H    -8.46560   -8.02976   14.08797
       O    -8.62708   -8.94799   14.23615
      H1    -8.22884   -9.35190   13.46178
       H    -8.75997   -5.31143   17.10558
       O    -8.18289   -5.99708   17.49881
      H1    -7.59442   -6.33800   16.81981
       H    -9.78679   -8.33949   19.73202
       O    -9.91561   -7.67747   18.98405
      H1    -9.07995   -7.21138   18.78764
       H    -8.31224   -2.73572   15.13793
       O    -7.70422   -2.78106   15.92143
      H1    -8.17646   -2.39682   16.67942
       H    -6.54075   -4.80202   17.89964
       O    -5.98011   -4.00233   18.06728
      H1    -6.39584   -3.33427   17.51433
       H    -8.35260   -3.55442   13.12332
       O    -9.04719   -3.13077   13.68200
      H1    -9.66801   -2.62371   13.12959
       H    -3.37863   -5.37093   17.59919
       O    -4.04131   -6.05267   17.48441
      H1    -4.83188   -5.58550   17.19687
       H    -5.39879   -0.61058   18.57901
       O    -5.31162   -0.98237   17.66946
      H1    -6.02892   -0.51052   17.25628
       H   -10.03466  -10.43182   17.43685
       O    -9.98528  -11.37989   17.69005
      H1    -9.12943  -11.68035   17.31891
       H   -14.58111   -6.23672   13.43172
       O   -14.11369   -5.77545   14.14626
      H1   -14.60938   -4.98818   14.40598
       H   -10.93263   -0.34735   16.85920
       O   -10.67560   -0.97697   16.14781
      H1   -11.34966   -1.64473   16.14707

