120
frame 0 | Written by MDAnalysis XYZWriter (release 2.4.3)
       H   -10.94964    5.69329   -6.77226
       O   -10.81658    5.65645   -7.69587
      H1   -10.72481    4.69988   -7.82960
       H    -7.50455    2.84031   -4.52712
       O    -6.53916    3.05216   -4.34209
      H1    -6.48387    2.85807   -3.38309
       H   -11.82773    4.71052   -4.70107
       O   -11.02806    5.05277   -5.17922
      H1   -10.83154    5.89777   -4.77427
       H   -13.58253    7.14446   -3.80717
       O   -14.11174    7.67094   -4.39775
      H1   -13.99967    8.52818   -4.03448
       H    -4.44125    0.67843   -5.52766
       O    -5.30650    0.80257   -5.10155
      H1    -5.43003    1.73512   -4.82796
       H    -9.83868    3.46220   -5.52050
       O    -9.16819    2.72948   -5.45354
      H1    -9.61054    1.95818   -5.05090
       H   -12.52027   -2.82726   -1.63721
       O   -12.44168   -1.93734   -1.25625
      H1   -11.99123   -2.19004   -0.43089
       H    -6.83195    5.65478    1.81681
       O    -6.92720    5.87543    0.86463
      H1    -7.57200    5.25436    0.49956
       H    -5.76393    4.88489   -3.27808
       O    -6.01730    5.37442   -2.46202
      H1    -5.47495    5.07695   -1.75168
       H    -9.06085   -2.84291   -4.23210
       O    -8.39146   -2.52603   -4.85543
      H1    -8.40196   -3.21865   -5.56395
       H   -14.85944   -3.23187   -3.63781
       O   -15.07392   -2.46083   -3.06084
      H1   -14.38602   -1.79611   -3.29291
       H   -11.98975    0.47552    2.41673
       O   -11.44300    1.30165    2.43411
      H1   -10.85653    1.05868    1.69604
       H    -6.96539    1.81106   -7.21508
       O    -7.10188    0.85297   -7.03541
      H1    -6.65057    0.65828   -6.18810
       H   -14.32098    0.98307   -0.37444
       O   -14.96227    1.34550    0.35652
      H1   -15.52426    0.58632    0.63170
       H    -8.19154    3.29072   -7.80569
       O    -7.18540    3.43297   -7.72171
      H1    -6.98253    4.14647   -7.14678
       H   -16.82135    2.84123   -5.76200
       O   -16.05517    2.30187   -5.56050
      H1   -15.31465    2.87410   -5.86811
       H   -13.31204    0.29344   -3.65949
       O   -13.40132   -0.55955   -4.13113
      H1   -13.92650   -0.33485   -4.90471
       H    -7.50745    3.02067    1.97871
       O    -7.33945    2.15837    1.49321
      H1    -6.37956    2.22367    1.27987
       H   -10.91229    3.67872   -9.48309
       O   -10.38990    3.18037   -8.86197
      H1   -10.93986    2.37982   -8.76608
       H   -12.98116    4.11427    1.04808
       O   -13.85388    3.75924    0.87304
      H1   -13.79399    2.81200    0.89522
       H    -6.87583    1.18279   -2.38849
       O    -6.90628    1.97468   -1.87789
      H1    -6.81477    1.78425   -0.91447
       H   -10.27122    2.00856   -1.43669
       O   -10.81324    2.59111   -2.04004
      H1   -10.87694    2.17686   -2.93030
       H   -11.59336   -4.34049   -5.40973
       O   -11.37428   -3.59499   -4.77791
      H1   -12.10389   -3.00206   -4.97473
       H    -8.80846   -0.02221   -6.76942
       O    -9.57769   -0.57253   -6.63229
      H1    -9.32878   -1.17629   -5.88224
       H   -11.63082    4.97902    2.65424
       O   -11.46612    4.22371    2.06321
      H1   -11.78450    3.44049    2.56522
       H    -6.29405   -0.11937   -3.80979
       O    -6.98980   -0.42220   -3.29303
      H1    -7.44057   -1.13031   -3.74070
       H    -8.02608   -1.79196   -0.93101
       O    -7.60250   -1.22755   -0.23980
      H1    -7.96614   -1.64847    0.58140
       H    -8.06625    4.45621   -2.43165
       O    -9.02457    4.74274   -2.56778
      H1    -9.53750    3.87104   -2.67666
       H   -13.17035    5.58690   -1.61970
       O   -12.36982    5.27136   -2.14338
      H1   -12.21807    4.38240   -1.75188
       H   -12.82996    3.07234   -5.77784
       O   -13.10745    3.24203   -4.85949
      H1   -13.74508    3.92480   -4.94992
       H   -12.26953    1.38427   -1.54223
       O   -13.03001    0.77752   -1.54481
      H1   -12.73102   -0.08650   -1.55200
       H   -10.42077   -1.97665   -2.11946
       O    -9.50629   -2.44720   -2.09928
      H1    -9.54384   -3.31834   -1.61777
       H   -14.40447    2.56636   -2.18568
       O   -14.96584    2.95001   -2.84752
      H1   -14.75267    2.50575   -3.67067
       H   -16.46118    0.85766   -1.88176
       O   -16.94153    1.27639   -2.61707
      H1   -16.38578    1.99394   -2.87309
       H   -11.62313   -0.05763   -4.23710
       O   -10.84230    0.44433   -4.48660
      H1   -10.44380    0.05077   -5.29393
       H   -11.40292    6.38243   -1.22111
       O   -10.83134    7.08431   -0.83296
      H1   -10.00204    6.60182   -0.44055
       H    -8.78892    6.43417   -3.43134
       O    -8.98278    7.25007   -4.00152
      H1    -9.40912    7.81806   -3.30921
       H   -14.38675    4.85722   -0.14376
       O   -14.61676    5.66559   -0.63407
      H1   -15.44733    5.46936   -1.09263
       H   -10.21669    4.51057    0.49630
       O    -9.41729    4.89970    0.00790
      H1    -9.48724    4.84382   -0.95439
       H    -9.13730    0.22332   -0.40536
       O    -9.44587    1.08136   -0.16138
      H1    -8.74089    1.35971    0.43950

