120
frame 4 | Written by MDAnalysis XYZWriter (release 2.4.3)
       H    -0.52526   11.07837    8.37140
       O    -1.39022   11.29975    8.57147
      H1    -1.34485   11.43237    9.55387
       H     0.53002    3.95091    3.88330
       O     0.22475    4.85520    4.08836
      H1     0.62730    5.37765    3.41614
       H     7.42810    3.66068    4.27942
       O     8.06470    2.91364    4.34147
      H1     7.73352    2.45596    5.12770
       H     2.94056    3.90438    8.70614
       O     3.31950    4.58223    9.25486
      H1     3.98192    4.17454    9.80359
       H     0.11205    5.23647    5.79968
       O    -0.03032    5.31933    6.77809
      H1     0.41957    6.13227    7.12543
       H     3.19178    4.46489    0.77218
       O     3.67608    3.87054    0.17752
      H1     2.95979    3.46133   -0.29957
       H     7.49327   10.31920    3.42533
       O     8.23870   10.62550    2.83969
      H1     7.91250   11.27871    2.25016
       H     2.96320    7.21500    6.05092
       O     2.61058    6.96933    5.20629
      H1     2.94845    6.09447    5.08627
       H     4.10585    0.14189    3.88876
       O     3.32381    0.37852    4.40173
      H1     3.45439    1.35344    4.60686
       H     5.92640    5.27207    3.88853
       O     5.64459    4.62396    4.55676
      H1     5.73723    4.99335    5.47074
       H     0.63439    6.19963    1.14754
       O     1.55165    6.26607    1.51648
      H1     1.65481    7.22281    1.65677
       H     0.66069    9.36707    5.75779
       O     0.72935    9.84856    6.64708
      H1     1.53014   10.39583    6.65432
       H     0.02122    6.02362    9.20726
       O    -0.62855    5.94480    9.98083
      H1    -0.52176    6.73577   10.56654
       H     2.61259    6.86186    0.05037
       O     3.16879    7.08524   -0.64800
      H1     2.71944    7.10083   -1.50346
       H     3.58272   11.45290    7.39570
       O     2.72390   11.77570    7.20802
      H1     2.19343   11.66129    8.01321
       H     7.31083    6.91955    3.71091
       O     6.56924    6.65803    3.12442
      H1     6.91195    6.38978    2.30156
       H     8.35191    6.78573    6.72655
       O     8.43732    7.08777    7.67120
      H1     8.01480    7.93962    7.71121
       H     5.31159    8.04973    0.12069
       O     5.99195    8.45735    0.64745
      H1     6.06970    9.38748    0.43268
       H    -1.72248    5.73818    3.93671
       O    -2.10279    6.60370    3.73003
      H1    -2.73187    6.86019    4.33263
       H     3.06913    8.97320    2.40758
       O     2.13918    8.99389    2.08157
      H1     1.96062    9.89974    2.21552
       H     6.55387    6.21424    7.55273
       O     5.77374    5.61277    7.46166
      H1     5.06358    6.24004    7.63453
       H    -1.62571    6.77182    8.73259
       O    -2.16838    6.99770    7.91562
      H1    -1.71933    6.61080    7.16331
       H    -1.36761    8.21898    2.93351
       O    -1.37055    8.70013    2.06989
      H1    -2.21768    9.19148    2.13701
       H     5.78589    1.55222    7.43887
       O     4.87926    1.94825    7.46466
      H1     4.91582    2.47462    8.25603
       H    -1.46870   11.43249    3.44919
       O    -1.14352   11.80728    2.58169
      H1    -1.06153   11.09782    1.94377
       H     5.86142   11.29354    4.02178
       O     6.14002   10.41532    4.37876
      H1     5.45191    9.71731    4.17673
       H    -1.10009    7.37228    1.04349
       O    -0.89647    6.78492    0.29423
      H1    -0.70560    7.42704   -0.43202
       H     2.23738   12.51947    2.63278
       O     2.68493   11.90532    1.99223
      H1     2.18584   12.02403    1.20668
       H     5.73042   10.68428    6.11498
       O     5.40786   10.80120    7.03100
      H1     6.07507   10.29969    7.58421
       H    -1.16476    2.71396    8.46874
       O    -0.65116    2.39531    7.68898
      H1    -0.24503    3.06970    7.23098
       H     2.97350    7.25884   11.18685
       O     3.18192    8.15745   10.87871
      H1     4.02905    8.25285   11.33917
       H     1.01156    2.36772    8.30880
       O     1.98522    2.28051    8.38690
      H1     2.14447    1.35818    8.73615
       H    -1.45931   10.39108    5.97802
       O    -1.92331   10.71441    5.17836
      H1    -2.79622   11.05282    5.48161
       H     2.00769    7.44755    8.07991
       O     1.04271    7.44235    8.01720
      H1     0.76604    8.32509    7.72347
       H     0.72663    8.80251    3.36905
       O     0.49835    8.52076    4.26132
      H1     1.17692    7.96652    4.63674
       H     3.70910    6.21091    8.67226
       O     3.75320    7.13889    8.37334
      H1     3.76106    7.68039    9.16352
       H    -0.70584    2.19936    2.05777
       O     0.13016    2.29444    2.52451
      H1     0.20756    1.40750    2.90730
       H     3.43515    2.87487    5.89894
       O     3.39735    2.92110    4.92839
      H1     4.08245    3.54726    4.72700
       H     3.97535    7.85847    4.34546
       O     4.64211    8.39146    3.81022
      H1     5.28449    7.75886    3.48951
       H     5.68003   12.60918    1.96296
       O     5.12086   12.57962    2.77059
      H1     4.28669   12.27633    2.39480

