120
frame 0 | Written by MDAnalysis XYZWriter (release 2.4.3)
       H     9.64424  -14.10609   15.94964
       O     9.00916  -14.53432   16.50428
      H1     8.50462  -13.78131   16.75084
       H     4.19261  -10.88355   10.18974
       O     3.40241  -10.29838   10.27871
      H1     2.64175  -10.93560   10.19627
       H     7.76388   -8.92612    8.64656
       O     7.90166   -8.04967    9.07356
      H1     8.13214   -8.22529   10.01700
       H    10.90269  -12.56734   18.73356
       O    10.12410  -12.08865   19.01472
      H1    10.19329  -12.24364   19.98971
       H     6.50517   -8.66651   18.64195
       O     5.71179   -8.42304   18.15945
      H1     5.06629   -9.11824   18.30301
       H    11.91091   -4.81068   13.90498
       O    12.55315   -4.72527   14.59216
      H1    11.97006   -4.60325   15.39381
       H    12.89465  -10.83061   10.82658
       O    12.26272  -11.53168   10.91588
      H1    11.46912  -11.12430   10.47486
       H     6.31190   -4.81891   18.26226
       O     5.46103   -5.15578   17.98707
      H1     5.46282   -4.74302   17.09983
       H    13.71599  -12.01125   13.44281
       O    14.60044  -12.26877   13.16933
      H1    14.92462  -12.73835   13.89623
       H     5.44608  -12.05498   11.69546
       O     5.78084  -12.00343   10.84042
      H1     5.93213  -12.91254   10.61868
       H     6.14085   -6.34649   16.82799
       O     6.50480   -6.86456   16.05367
      H1     6.38916   -7.71828   16.49652
       H     8.43156   -6.90111   17.35806
       O     8.89357   -6.23998   17.93939
      H1     8.70678   -6.61009   18.79946
       H    10.55705   -6.22882   11.60736
       O    10.41263   -5.60189   12.38135
      H1     9.52014   -5.29161   12.23108
       H    12.64297  -13.61366   15.32082
       O    13.43508  -14.22115   15.30291
      H1    13.26383  -14.78022   16.05559
       H     9.01085   -9.68673   18.45904
       O     8.26390   -9.16623   18.82879
      H1     8.38385   -9.27557   19.79831
       H     5.47354   -7.50380   10.66530
       O     5.54832   -7.72206   11.58942
      H1     4.70980   -8.17834   11.80213
       H     9.72377  -13.21731   13.92105
       O    10.44037  -13.67026   14.47045
      H1    10.64502  -14.45652   13.92623
       H     8.54550  -11.32822   13.94832
       O     8.25466  -12.08239   13.46687
      H1     7.49523  -12.42306   14.02675
       H     1.96482   -9.20229   15.21216
       O     1.81890   -8.39494   14.68643
      H1     2.41440   -8.51414   13.90162
       H     4.86025   -9.23029   14.76009
       O     5.44174  -10.02286   14.86666
      H1     5.21113  -10.27066   15.78604
       H     3.04850   -7.79851   11.83668
       O     3.12401   -8.62198   12.39750
      H1     3.18741   -9.35039   11.74075
       H     7.85475  -11.59785    7.84974
       O     7.88246  -10.62258    7.82578
      H1     8.39321  -10.35136    7.04874
       H    10.58825   -6.93606   13.35292
       O    11.06189   -7.69768   13.87430
      H1    10.41832   -7.93560   14.51470
       H    11.32386   -5.02449   17.82522
       O    10.96516   -4.87155   16.98373
      H1    10.14148   -5.36097   17.14809
       H     9.08110  -11.47935   10.74530
       O     9.18698  -10.64473   10.29185
      H1     8.74522  -10.85649    9.45179
       H     6.47578   -5.73395    8.27745
       O     5.88843   -6.51503    8.09395
      H1     6.48631   -7.14130    8.55841
       H     6.26862   -6.07103   14.51395
       O     5.88219   -5.80498   13.66483
      H1     5.98356   -6.58081   13.09324
       H     3.63122   -6.13827   15.56966
       O     3.30323   -5.85382   14.71963
      H1     4.18083   -5.82670   14.26517
       H     4.92835  -12.08559   17.72178
       O     5.45537  -11.60098   17.05295
      H1     6.38404  -11.73575   17.40511
       H    11.22647   -6.62041    9.45469
       O    10.85172   -7.22855   10.14229
      H1    10.36648   -7.86970    9.61086
       H    11.78039   -6.82661   18.15046
       O    12.27946   -7.17410   18.92307
      H1    13.19239   -7.07227   18.69353
       H    10.33357   -8.55494   12.51817
       O     9.45571   -8.94015   12.26141
      H1     9.68408   -9.52458   11.51426
       H    13.75446   -9.19698    9.94498
       O    13.63236   -9.27550   10.89976
      H1    13.49600   -8.34076   11.22541
       H    13.68157   -7.70707   14.92996
       O    14.47251   -7.13435   14.81761
      H1    14.18208   -6.28401   14.50980
       H    11.52789   -9.59287   18.42441
       O    11.21326   -9.81127   17.54709
      H1    10.83348  -10.73183   17.68713
       H     7.37886   -9.26761   14.56070
       O     8.37596   -9.21160   14.72777
      H1     8.67859   -9.19711   13.83176
       H     7.43338  -13.34229   18.60211
       O     7.60569  -12.65668   17.94608
      H1     8.42118  -12.21725   18.43169
       H     3.52883  -11.97173   13.40699
       O     4.45687  -12.01004   13.36178
      H1     4.80666  -11.29620   14.00083
       H     7.12171   -4.86836   12.82511
       O     7.60471   -4.44688   12.09732
      H1     7.75911   -3.55256   12.37820
       H     6.01486  -12.60686   15.75937
       O     6.19114  -13.11776   14.98868
      H1     5.40464  -12.98683   14.40737

