120
frame 0 | Written by MDAnalysis XYZWriter (release 2.4.3)
       H     9.75457   13.19458   -8.82031
       O     9.95232   13.57419   -7.96187
      H1    10.67843   14.23743   -8.17978
       H    16.15795    9.83342   -6.39106
       O    16.11685   10.08798   -7.34551
      H1    15.29581    9.63068   -7.66311
       H    13.78580    3.22504   -8.45480
       O    14.43299    3.55745   -9.13159
      H1    15.29240    3.05217   -9.12956
       H    12.98347    4.00717   -4.94550
       O    12.73884    3.07115   -5.03646
      H1    12.57016    2.93946   -5.98347
       H    12.66917    6.83413   -4.65964
       O    12.21371    7.62525   -4.84495
      H1    12.78562    8.36080   -4.62666
       H    11.43299    9.06913  -13.35355
       O    10.80005    8.38783  -13.51491
      H1    10.95778    8.05547  -14.40499
       H    17.38589    6.25538   -8.06879
       O    16.86070    6.20244   -8.90314
      H1    16.41819    7.02573   -8.86481
       H    16.43661    8.82536   -4.22695
       O    16.00010    9.57292   -4.64867
      H1    15.13963    9.72387   -4.19244
       H    10.14443    4.80782   -6.87382
       O    10.11522    4.45001   -5.94724
      H1    10.23571    3.48403   -6.04884
       H    10.49721    7.80423   -3.97054
       O     9.74052    8.16792   -3.51683
      H1     9.18409    7.33821   -3.59095
       H    13.95775    8.67394  -13.61291
       O    13.79595    8.77397  -14.58391
      H1    14.47843    9.46390  -14.73095
       H    12.81509   10.79240   -4.04615
       O    13.36045   10.12498   -3.51951
      H1    12.87414   10.27306   -2.71347
       H    14.54237    5.37997  -12.91003
       O    14.03131    6.20554  -12.95048
      H1    13.28065    5.90939  -13.51860
       H    19.36756    4.91122   -6.61391
       O    18.65249    5.47601   -6.94785
      H1    18.72537    6.02470   -6.12613
       H    15.01419    4.13162   -6.10459
       O    14.65672    4.97971   -6.33048
      H1    14.76033    4.95017   -7.26019
       H    11.68784    7.70753   -6.85603
       O    11.31480    8.22530   -7.57801
      H1    10.69211    7.52622   -7.86064
       H     8.69338    7.50901  -11.28520
       O     9.35520    6.86287  -11.02436
      H1    10.20529    7.19801  -11.46327
       H    16.33957   11.42318   -3.96828
       O    16.60452   12.26635   -3.51679
      H1    15.97056   12.30849   -2.73371
       H    16.34848    5.46002   -3.99065
       O    16.11938    4.54188   -3.84725
      H1    15.18835    4.64280   -3.60760
       H    16.34702   13.10876   -6.88767
       O    17.27391   12.79007   -6.83451
      H1    17.66101   13.68997   -6.54417
       H     9.39552   11.41469   -6.06961
       O     9.42230   12.11267   -5.34425
      H1     8.72398   12.68965   -5.67458
       H    13.28412    6.00687  -11.44111
       O    12.83961    5.84408  -10.54949
      H1    13.50971    5.22426  -10.16539
       H    18.72733   11.99903   -7.01362
       O    19.53641   11.44301   -6.95715
      H1    19.34997   10.58775   -7.38886
       H     8.92594    5.50054   -8.30900
       O     9.65291    6.01079   -8.56467
      H1     9.25144    6.26653   -9.46232
       H    17.67131   12.06673  -12.31769
       O    18.36029   11.79038  -11.66065
      H1    17.98397   10.89919  -11.51639
       H    14.16556   12.56231   -9.44264
       O    13.61345   11.89567   -9.83168
      H1    12.89372   12.40089  -10.24483
       H     9.30634   12.96189  -11.24279
       O     9.75685   12.50062  -10.53345
      H1     9.06342   11.89198  -10.22482
       H     7.06872    8.62632   -8.04059
       O     7.69263    9.10930   -8.61781
      H1     8.43861    9.50845   -8.15868
       H    16.23600    9.10951  -12.31764
       O    17.07163    8.68776  -12.51129
      H1    16.94248    7.74787  -12.49344
       H    10.66687    4.79246   -9.11246
       O    11.03022    3.95577   -9.43268
      H1    11.73426    4.29931  -10.02803
       H    12.12420   11.59308  -12.50277
       O    11.63838   10.79930  -12.22060
      H1    11.20920   11.20043  -11.43539
       H    13.82621   14.04200   -7.47141
       O    14.77896   13.96130   -7.45634
      H1    15.22060   14.72561   -7.86388
       H    13.91165    9.41309   -9.07402
       O    13.90543    8.94818   -8.20543
      H1    13.00356    8.60127   -8.27695
       H    17.69997    9.41084   -7.87635
       O    18.51707    8.88637   -7.88741
      H1    18.58591    8.64713   -6.93788
       H    10.60241   10.25591   -7.54369
       O     9.73089   10.69020   -7.69380
      H1     9.98120   11.58404   -7.77192
       H    13.18867   11.35329   -6.79015
       O    12.37807   11.00478   -6.42444
      H1    12.30671   10.06224   -6.70101
       H    13.67666   10.43109  -12.32500
       O    14.63809   10.48971  -12.30047
      H1    14.74677   11.09249  -11.51997
       H    17.62183   12.12320  -10.29465
       O    16.86856   12.59303   -9.75479
      H1    17.05511   12.46365   -8.83282
       H    17.38049    4.07206   -7.91492
       O    17.24572    3.23766   -8.31564
      H1    17.62498    2.62828   -7.61135
       H    18.11581    7.50553   -4.14660
       O    17.27716    7.14982   -3.92374
      H1    17.39658    6.94740   -2.95494

