120
frame 0 | Written by MDAnalysis XYZWriter (release 2.4.3)
       H     4.19261  -10.88355   10.18974
       O     3.40241  -10.29838   10.27871
      H1     2.64175  -10.93560   10.19627
       H    -0.78229  -13.19368    1.62709
       O    -1.60802  -13.63623    1.64013
      H1    -2.02972  -13.21021    2.42595
       H    -0.89529   -7.78644    9.63518
       O    -0.46734   -8.54396   10.02819
      H1     0.10046   -8.94619    9.30448
       H     1.94125  -14.49016    6.78356
       O     1.51955  -13.66589    7.07585
      H1     0.99854  -13.36477    6.25914
       H    -2.70481  -11.63134    6.08900
       O    -2.72839  -10.78770    5.59883
      H1    -1.79886  -10.62217    5.70648
       H    -0.50013  -15.72176    8.44783
       O    -0.19015  -15.59215    7.55356
      H1     0.59364  -15.00378    7.63939
       H     3.74976  -10.93475    6.61981
       O     4.07199  -11.06615    7.50570
      H1     4.92828  -10.61074    7.43340
       H     0.59656  -18.08089   10.01459
       O     0.11135  -17.68594   10.76254
      H1    -0.53790  -18.38259   11.03204
       H     0.31713  -17.40043    7.14783
       O     0.09983  -18.30124    7.26633
      H1    -0.10310  -18.58332    6.38991
       H     6.85475  -11.09461    5.92507
       O     6.47739  -11.26458    5.01542
      H1     6.20559  -12.20841    4.97805
       H     1.65384  -12.38126    2.15888
       O     0.67531  -12.35171    1.97166
      H1     0.42694  -11.49897    1.48496
       H     4.73586  -10.94579    4.95468
       O     3.82142  -10.81284    4.80265
      H1     3.66711  -11.19069    3.93360
       H     1.57580   -8.07594    6.86680
       O     0.82135   -7.58815    6.41063
      H1     1.08027   -7.64706    5.45279
       H    -1.64509  -18.64586    8.37966
       O    -2.60155  -18.50531    8.61339
      H1    -2.98543  -18.82288    7.78839
       H     5.44608  -12.05498   11.69546
       O     5.78084  -12.00343   10.84042
      H1     5.93213  -12.91254   10.61868
       H    -3.27157  -11.55430   11.60508
       O    -3.31668  -11.82737   10.69385
      H1    -3.15288  -11.04536   10.21681
       H     5.08786  -18.27982    8.28266
       O     4.27914  -18.04321    8.77771
      H1     4.50751  -18.04010    9.67790
       H     3.29146  -17.79740    4.66425
       O     3.16187  -16.84799    4.58461
      H1     3.16890  -16.53475    5.49857
       H    -3.12410  -10.48842    7.62172
       O    -3.06642   -9.78299    8.26673
      H1    -2.60715   -9.06850    7.69773
       H     3.19264  -10.57874    1.60978
       O     3.53009  -11.38433    2.03320
      H1     4.18138  -11.71760    1.37399
       H     0.10440  -10.57610    7.59305
       O    -0.37207  -10.13043    6.88584
      H1     0.31070   -9.54003    6.60022
       H    -2.40808  -12.85958    8.11279
       O    -3.09049  -12.92235    7.40132
      H1    -2.88771  -13.80933    6.99633
       H    -1.35592  -13.73181    9.83640
       O    -1.38970  -12.82086    9.48556
      H1    -2.16939  -12.44680    9.96272
       H    -2.24753  -15.69675   10.35252
       O    -1.34713  -15.41421   10.07360
      H1    -0.83105  -16.22262   10.40323
       H     6.24756  -13.24152    7.82441
       O     7.13889  -13.22229    8.12400
      H1     7.47640  -14.05181    7.68383
       H     0.98334  -11.59001   12.95897
       O     1.37935  -12.25747   13.53812
      H1     1.04830  -13.10356   13.22689
       H     4.60445  -16.56957    2.12302
       O     5.12164  -16.37403    2.89551
      H1     4.42972  -16.56171    3.58090
       H    -0.35798  -14.19449    4.49593
       O     0.26386  -13.45836    4.52797
      H1     0.24378  -12.88634    3.69868
       H     5.63005  -15.21199   10.77504
       O     4.79841  -15.02916   10.32726
      H1     4.11763  -15.27423   10.97586
       H    -1.92009  -15.57739    6.69873
       O    -2.79101  -15.32392    6.35190
      H1    -2.56312  -15.42200    5.37342
       H     2.69274  -18.83555    9.04279
       O     1.77593  -19.14813    9.16269
      H1     1.51356  -18.92535    8.22410
       H     3.42681  -16.60805    7.76014
       O     3.11598  -15.92879    7.09815
      H1     3.62757  -15.13824    7.41212
       H     0.00895  -12.07037    8.95113
       O     0.74804  -11.48502    8.79703
      H1     1.26126  -11.95821    8.16067
       H    -3.09297  -11.89030    4.21531
       O    -3.57119  -12.52227    3.62965
      H1    -4.38346  -12.77220    4.10566
       H     1.71461  -18.60620    3.07636
       O     1.17090  -17.82349    3.04879
      H1     1.67919  -17.16054    3.55927
       H     2.48904  -15.38863   13.06800
       O     3.26688  -15.73801   12.60132
      H1     3.98558  -15.24691   13.07894
       H    -2.48717  -16.35340    3.81247
       O    -1.67103  -15.81850    3.91776
      H1    -1.42637  -15.49574    3.04014
       H    -0.38531  -19.73646    4.54592
       O    -0.73334  -18.79858    4.68529
      H1    -0.03512  -18.24584    4.26590
       H     4.64017  -14.12869    8.77696
       O     4.51317  -13.84067    7.78493
      H1     4.04617  -13.00366    7.97508
       H     2.63881   -9.40662    8.78706
       O     2.31272   -8.47756    8.48645
      H1     2.56447   -7.92711    9.24775

