120
frame 0 | Written by MDAnalysis XYZWriter (release 2.4.3)
       H    -0.63364    2.57496   13.37749
       O    -1.39253    3.07256   13.01404
      H1    -1.48231    2.78437   12.08651
       H    -4.37704   -3.91033   10.58577
       O    -5.05839   -3.96878    9.91417
      H1    -4.74770   -4.73498    9.44948
       H    -0.77318    0.39662    6.60244
       O    -0.29778    0.48124    7.46262
      H1    -0.23074    1.42633    7.62499
       H    -2.40860    4.58384    8.75785
       O    -2.99980    4.05380    8.16920
      H1    -3.79485    4.63956    8.11987
       H    -0.44399    3.50829    9.53550
       O     0.06311    3.01400    8.90483
      H1     0.93160    3.38526    8.74965
       H    -2.40554   -4.85648   12.30127
       O    -2.61312   -4.43958   11.45788
      H1    -1.98087   -4.80049   10.78420
       H    -6.23819   -4.61145   12.78770
       O    -6.35663   -3.69584   12.46230
      H1    -6.11993   -3.76789   11.48840
       H    -1.31087   -1.25416    8.11069
       O    -1.23799   -2.16178    8.44186
      H1    -1.32298   -1.96762    9.41638
       H     2.25678    0.47711   10.02126
       O     3.12406    0.14094   10.11129
      H1     3.05159   -0.78566    9.88814
       H    -4.31969    2.67400   13.04315
       O    -3.78527    1.86745   13.24332
      H1    -2.86711    2.15624   13.29635
       H    -5.77309    3.90557   10.54706
       O    -5.70599    3.79086    9.58448
      H1    -6.37378    3.22244    9.20199
       H    -3.78076    2.81291    6.10081
       O    -4.61103    2.31691    6.15378
      H1    -4.46680    1.51609    5.61884
       H     0.01060   -2.85350   13.17782
       O    -0.79271   -3.17556   13.63579
      H1    -1.43132   -2.44057   13.47245
       H    -3.22009   -0.46284    4.35101
       O    -2.58081   -1.07901    4.66308
      H1    -2.79199   -1.92815    4.35886
       H    -5.30478   -2.75511   13.90344
       O    -4.87116   -1.88652   14.12949
      H1    -4.96280   -1.90757   15.09909
       H    -1.33521    3.36174    6.99364
       O    -1.12681    3.47970    6.04442
      H1    -0.27542    3.91815    6.12531
       H    -6.14049   -1.22862    8.98410
       O    -6.62683   -0.60379    9.56425
      H1    -7.07798    0.04644    8.96642
       H     2.41878   -5.51823    8.80998
       O     1.61921   -5.21263    8.33459
      H1     1.42554   -5.99762    7.83571
       H     1.66859   -0.25039   12.67831
       O     1.40488   -0.84354   13.39226
      H1     1.00155   -0.18860   13.93264
       H    -0.96974   -0.38708   14.62254
       O    -0.47190    0.37599   14.89836
      H1    -0.03973   -0.02292   15.64075
       H    -7.73147   -2.54202    9.19779
       O    -7.52361   -3.42905    8.93991
      H1    -6.65602   -3.63035    9.31558
       H    -5.60776    0.65147   12.43381
       O    -6.36578    1.13617   12.05115
      H1    -6.23603    1.14980   11.09877
       H     0.87089   -2.20671    8.85272
       O     1.52144   -2.18305    9.56313
      H1     2.32115   -2.49531    9.06443
       H     0.27467   -5.39654    9.70816
       O    -0.64407   -5.46628    9.83905
      H1    -0.95593   -5.24780    8.94492
       H    -0.74510   -2.89534   15.31753
       O    -0.93790   -2.88865   16.26037
      H1    -0.87846   -1.98631   16.56752
       H    -3.49497    1.89875   15.04065
       O    -3.33827    2.15261   15.94104
      H1    -3.26901    3.10761   15.83983
       H     0.55284    1.44970   11.26115
       O     0.59433    0.88813   10.45270
      H1     0.44405    1.62649    9.75734
       H     1.12170   -0.87618    6.87168
       O     1.72467   -1.10332    6.16595
      H1     2.16964   -0.23643    6.02463
       H    -9.04218   -1.54518   11.48370
       O    -8.99926   -0.56045   11.51911
      H1    -8.02289   -0.46924   11.43519
       H    -2.27997    5.09027   10.88980
       O    -1.46685    5.34885   10.46069
      H1    -1.43624    6.32860   10.59150
       H    -2.58733   -0.09703   10.48021
       O    -1.98797   -0.82466   10.78335
      H1    -1.14583   -0.34569   10.60350
       H    -6.11298    0.12250    5.40550
       O    -5.29487   -0.27941    5.10209
      H1    -5.05683   -0.71072    5.94774
       H    -2.32109   -4.17034    6.64293
       O    -1.43946   -4.36073    7.05291
      H1    -1.36076   -3.58341    7.64390
       H    -2.15588   -0.93095   12.58950
       O    -2.38484   -0.95591   13.55633
      H1    -3.24037   -1.46013   13.56476
       H    -6.63809    0.91268   15.51679
       O    -6.95158    0.40726   14.78020
      H1    -6.18498   -0.24355   14.69505
       H    -2.04330   -6.35352   14.48387
       O    -2.75510   -5.79902   14.06349
      H1    -3.27839   -5.43261   14.78450
       H     2.54624    1.96100   12.78215
       O     1.66449    2.39348   12.57371
      H1     1.43508    2.82049   13.47053
       H    -3.32094    2.65294    9.26329
       O    -3.39910    1.78355    9.74473
      H1    -4.09999    1.98903   10.36422
       H     1.25206   -4.72397   11.43157
       O     1.29475   -3.81367   11.73684
      H1     1.44286   -3.29846   10.93543
       H     3.08510   -3.82560   11.93900
       O     3.97658   -3.89118   11.60533
      H1     4.38424   -3.26583   12.21048

