120
frame 1 | Written by MDAnalysis XYZWriter (release 2.4.3)
       H     5.56383    3.50708   10.56286
       O     4.69198    3.36585   10.99112
      H1     4.69938    2.50897   11.50292
       H    -2.21104   -1.56288   13.12714
       O    -2.58302   -1.20092   12.29803
      H1    -2.57610   -0.22666   12.38191
       H     3.43254   -3.13363   12.17027
       O     3.54314   -3.94179   12.65775
      H1     2.63719   -4.05803   12.90261
       H    -1.82118    4.68461   13.66734
       O    -2.11001    4.58125   14.57136
      H1    -1.24979    4.28098   14.89456
       H    -1.19346   -1.24946   18.40569
       O    -0.45009   -1.61385   17.87649
      H1    -0.85037   -2.21883   17.22654
       H    -1.64161    5.17595   10.84128
       O    -2.00430    4.32344   10.97925
      H1    -2.97283    4.51772   11.05589
       H     0.10460   -0.18731   14.38068
       O    -0.23949    0.36020   13.65804
      H1    -0.62965    1.18909   14.07529
       H     3.55098    2.50350   14.18371
       O     4.46260    2.08819   14.18991
      H1     4.71073    2.17108   15.12537
       H     0.48234   -2.51141    8.69546
       O    -0.27971   -2.88442    9.25123
      H1    -1.07070   -2.61643    8.80952
       H    -0.53762    1.82346   16.45454
       O    -0.65778    2.74676   16.20059
      H1    -1.06876    3.14705   16.99659
       H     2.74922   -1.03444   10.25275
       O     3.23218   -0.83549    9.41714
      H1     4.08840   -0.80415    9.84755
       H    -0.46196   -3.19872   13.96572
       O    -1.16625   -2.60227   14.26304
      H1    -1.71961   -3.09175   14.80793
       H    -2.81568   -6.34136   10.69335
       O    -2.63270   -6.14127   11.65186
      H1    -2.39552   -5.23719   11.72408
       H     3.33255   -0.88726   15.16778
       O     3.35647   -0.74349   16.11698
      H1     4.16543   -0.30588   16.30967
       H     1.68739    0.08107   16.37456
       O     0.72359    0.18015   16.33123
      H1     0.38983   -0.39268   17.02441
       H    -0.31539   -0.94737   11.95542
       O     0.37657   -1.18296   11.33815
      H1     0.11794   -1.56529   10.53014
       H    -4.13890   -1.82699   12.96561
       O    -4.79141   -2.21677   13.62382
      H1    -5.11968   -3.09048   13.35314
       H    -5.81903    2.69941   16.21349
       O    -5.07539    2.06385   16.43691
      H1    -4.58926    2.40613   17.22453
       H     1.41790    5.51182   13.21730
       O     1.70943    6.39483   13.53472
      H1     1.93247    6.17665   14.43259
       H    -2.47271    3.45152   18.42853
       O    -1.73000    2.84936   18.67230
      H1    -1.13565    3.33274   19.23829
       H     1.70320    6.09798   16.99715
       O     2.21932    5.68414   16.30344
      H1     2.17577    4.72610   16.50971
       H    -2.68664   -2.40494   10.59296
       O    -3.30626   -2.86497    9.99672
      H1    -4.17509   -2.65176   10.36410
       H     1.18188    2.66219   16.39962
       O     2.16386    2.80395   16.18229
      H1     2.75632    2.85267   16.97912
       H     4.02488    4.71880   12.25729
       O     4.14905    5.38806   12.95169
      H1     3.28859    5.80974   13.03930
       H    -1.52558    3.15197    9.06510
       O    -1.18255    3.03845    8.12308
      H1    -0.36150    3.59409    8.01148
       H     0.34901   -4.58782   12.45436
       O     0.67530   -4.53075   13.34950
      H1     0.90914   -5.43466   13.59873
       H     5.87159   -0.67425   11.46164
       O     5.24114    0.08566   11.39158
      H1     4.68478   -0.09730   12.21318
       H    -3.16214   -4.51859   15.94025
       O    -2.56655   -3.84592   16.20222
      H1    -3.02043   -3.24809   16.83888
       H     1.41433    1.36013    8.50458
       O     1.86930    1.77037    9.30346
      H1     2.68882    1.24894    9.26076
       H     0.82092   -4.96859   18.07636
       O     1.24764   -4.25117   18.54530
      H1     1.18358   -3.53971   17.88809
       H     1.01851    0.89448   12.38799
       O     1.63375    1.53455   12.09477
      H1     1.67004    1.42880   11.12781
       H    -0.12273   -5.71655   10.21391
       O     0.60829   -5.17778   10.42015
      H1     0.38664   -4.25111   10.06893
       H    -5.00208   -1.24971   15.05873
       O    -5.41652   -0.70093   15.76371
      H1    -5.15622    0.22811   15.71242
       H    -3.39077   -1.20788   18.32454
       O    -3.78496   -1.90561   17.76106
      H1    -4.24456   -1.36076   17.06743
       H    -2.75970    2.98509   14.41413
       O    -3.30377    2.16200   14.22069
      H1    -3.92412    2.22149   15.04230
       H     3.91663    0.46803   13.77554
       O     3.37448   -0.21787   13.37193
      H1     2.75922    0.29284   12.79253
       H    -4.40407    2.05963   12.63867
       O    -5.13948    1.76951   12.09943
      H1    -5.50501    0.95643   12.36715
       H    -0.57678    3.62830   11.92864
       O     0.18984    3.72308   12.52675
      H1     0.75711    2.91242   12.37041
       H    -5.10291    1.96428    8.70196
       O    -5.74156    1.91885    9.41232
      H1    -5.23256    1.91580   10.26571
       H     0.87935   -2.81057   15.36024
       O     1.68642   -3.04364   15.86660
      H1     2.24654   -2.27611   15.90039

