120
frame 0 | Written by MDAnalysis XYZWriter (release 2.4.3)
       H   -14.57173   -4.06580   -2.83909
       O   -15.21549   -3.36769   -2.54173
      H1   -15.51393   -3.72821   -1.70672
       H   -10.09984   -3.94593   -4.63857
       O   -10.75867   -3.78271   -3.91121
      H1   -10.52497   -4.50323   -3.29590
       H   -11.37743   -3.60681   -0.92262
       O   -11.46507   -2.64232   -0.92971
      H1   -10.65424   -2.29521   -0.56547
       H   -12.35822    1.46482   -3.56012
       O   -11.55356    0.90484   -3.50576
      H1   -11.77935   -0.07460   -3.68523
       H   -13.70413    0.69916    3.17817
       O   -13.51641    1.41944    3.79138
      H1   -14.07000    2.16373    3.63567
       H   -14.90193    2.02141   -0.53379
       O   -15.33757    1.16281   -0.51876
      H1   -15.95729    1.30446    0.22472
       H   -14.93144   -0.39223   -1.82210
       O   -14.86503   -0.67581   -2.72697
      H1   -14.99717   -1.60674   -2.69394
       H   -11.14980    2.93580    2.22450
       O   -11.20348    2.89677    3.19654
      H1   -12.03295    2.38422    3.33288
       H   -13.49489   -4.55323    0.09480
       O   -12.70102   -5.10970   -0.12558
      H1   -12.40398   -5.38878    0.71054
       H    -8.53383   -3.51280    2.65001
       O    -8.43857   -2.58270    2.82954
      H1    -7.51707   -2.42070    2.47255
       H   -12.78907   -0.15474    0.12256
       O   -13.06783   -1.07646    0.29868
      H1   -12.49266   -1.65333   -0.27351
       H    -7.16583    2.58417    3.23683
       O    -7.65855    1.81899    2.79073
      H1    -8.18725    1.41377    3.46022
       H    -9.17231   -1.96181    0.88100
       O    -9.34449   -1.42220    0.08667
      H1    -8.46009   -1.36112   -0.24185
       H   -17.64385    0.09011    2.28969
       O   -16.81738    0.50238    2.09943
      H1   -16.23075   -0.26809    1.96737
       H    -9.23233   -2.32109   -3.71838
       O    -8.97139   -1.69074   -4.44429
      H1    -8.61222   -1.01770   -3.89007
       H   -16.12795   -4.85541    0.22245
       O   -15.42126   -4.22087    0.07573
      H1   -15.73033   -3.45043    0.53737
       H   -12.74530    0.72196    5.45446
       O   -12.24005    0.81447    6.29284
      H1   -11.56048    0.09197    6.14198
       H   -14.34277   -1.34080    1.15880
       O   -15.16342   -1.60618    1.65173
      H1   -14.62009   -1.68028    2.47723
       H   -17.33592    3.01965    2.13654
       O   -17.63056    3.42354    1.28655
      H1   -17.65498    2.66599    0.65770
       H   -13.43407    4.04141   -3.97003
       O   -13.10427    3.15901   -3.83065
      H1   -12.37311    3.17377   -4.54665
       H    -9.60791    0.34991    0.55382
       O    -9.94314    1.19966    0.83552
      H1    -9.37725    1.34264    1.61648
       H   -18.80487   -1.32306   -1.62591
       O   -17.82992   -1.27685   -1.90476
      H1   -17.42769   -1.11477   -1.06297
       H    -6.69860    2.78671   -1.83518
       O    -7.07612    1.93700   -1.54370
      H1    -6.67982    1.84275   -0.66654
       H   -16.10937    4.29857    1.15240
       O   -15.13989    4.23632    1.04830
      H1   -14.88890    5.17726    1.08727
       H   -18.67553    0.77261    5.12153
       O   -18.60965    0.85209    4.17441
      H1   -17.63697    0.82321    4.03854
       H   -11.66487    1.16661   -1.60360
       O   -12.02979    1.42737   -0.72495
      H1   -11.16962    1.43553   -0.25030
       H    -8.50879    3.11803   -1.42023
       O    -9.01915    3.91431   -1.02147
      H1    -9.52233    4.16008   -1.82262
       H   -15.92775    4.00363    3.73784
       O   -14.98584    3.74051    3.62183
      H1   -14.86744    3.84131    2.64830
       H   -12.13338   -1.98762    3.01685
       O   -11.75817   -1.23931    2.60826
      H1   -11.79335   -1.57417    1.68572
       H   -15.07329    2.37147   -3.52073
       O   -15.96803    2.55100   -3.38380
      H1   -16.28671    1.80924   -2.86753
       H   -10.30339    3.47905    4.29251
       O    -9.69051    3.87622    5.03612
      H1   -10.13074    4.76829    4.96393
       H   -13.70518   -4.77460   -4.91676
       O   -13.27594   -4.84610   -3.98113
      H1   -12.55894   -4.18332   -3.95922
       H   -13.01326    5.91649   -0.31212
       O   -13.36534    6.34810    0.44913
      H1   -13.48436    7.29995    0.09711
       H   -14.12422   -2.09208    4.88570
       O   -13.85515   -2.37549    4.04501
      H1   -14.50187   -3.14862    3.96739
       H   -12.76236    4.06780   -2.21240
       O   -12.62225    4.98234   -2.01105
      H1   -13.20241    5.42924   -2.59787
       H   -10.45916    1.45539    3.55030
       O    -9.94916    0.65772    3.83755
      H1   -10.56436   -0.02295    3.54258
       H   -11.81026   -2.16892   -2.98923
       O   -12.39594   -1.63718   -3.55498
      H1   -13.08176   -1.24843   -2.96970
       H   -15.25615    4.44986   -0.88527
       O   -15.90835    4.68532   -1.56588
      H1   -15.81360    4.05661   -2.28800
       H   -18.40209    0.91115   -0.94669
       O   -18.38452    1.83953   -0.60947
      H1   -19.30826    1.93422   -0.25941
       H   -14.88660    1.17184    4.86596
       O   -15.63647    0.70550    5.31523
      H1   -15.58018    0.88722    6.25808

