120
frame 0 | Written by MDAnalysis XYZWriter (release 2.4.3)
       H     9.75457   13.19458   -8.82031
       O     9.95232   13.57419   -7.96187
      H1    10.67843   14.23743   -8.17978
       H     8.43657   15.73305   -4.46857
       O     9.19132   15.73227   -3.87630
      H1     8.95116   16.28139   -3.13651
       H    13.77522   18.51134   -3.17537
       O    12.81109   18.30988   -3.05563
      H1    12.85775   17.77776   -2.26688
       H     6.67567   14.56445   -1.98511
       O     6.98582   13.67231   -1.84748
      H1     6.69958   13.33206   -2.74841
       H     3.36064   15.86587   -1.97497
       O     3.78138   16.73849   -2.21938
      H1     3.13965   17.08116   -2.90283
       H    13.64032   14.68068   -0.43903
       O    12.76340   14.59871    0.01242
      H1    12.59167   13.65398   -0.06160
       H    10.80865   12.63747   -0.88045
       O    11.12198   11.89627   -0.33428
      H1    10.58668   12.08432    0.48406
       H    12.07262   15.93058   -7.88450
       O    12.27421   15.36609   -7.17846
      H1    11.84470   15.84020   -6.42675
       H     5.55063   11.34752    0.63017
       O     5.86752   11.28921   -0.30455
      H1     6.24906   12.20459   -0.42765
       H    11.14224   15.64881  -10.96419
       O    11.31728   15.70773   -9.98573
      H1    12.18527   16.14116   -9.95844
       H     9.19817   15.25280    1.04304
       O     8.82852   16.11625    1.20976
      H1     9.56301   16.59754    1.63664
       H     9.36256   19.75541   -1.97742
       O     9.31990   19.64709   -1.02741
      H1     9.26133   18.66190   -1.13155
       H    11.13071   14.15090   -3.75060
       O    11.58685   13.27715   -3.95044
      H1    10.90795   12.75771   -4.35418
       H     3.11314   16.06815   -5.05740
       O     2.52592   15.46415   -5.55679
      H1     1.93183   15.19050   -4.82106
       H     4.66604   10.47213   -6.20769
       O     5.50966   10.85221   -6.09199
      H1     5.96518   10.20043   -5.58517
       H     5.01351   17.58339   -7.93771
       O     4.85060   18.52575   -7.87575
      H1     3.95129   18.45143   -8.20323
       H     9.57095   18.32496   -6.39746
       O     8.93478   19.04106   -6.30200
      H1     8.80699   19.36312   -7.23009
       H     4.66686   12.14660   -3.19199
       O     5.40705   12.38976   -3.68872
      H1     5.17269   12.02873   -4.56683
       H     8.47073   13.95469   -1.57036
       O     9.36248   14.07070   -1.14511
      H1     9.74272   14.70339   -1.85424
       H     9.39552   11.41469   -6.06961
       O     9.42230   12.11267   -5.34425
      H1     8.72398   12.68965   -5.67458
       H     5.37666   16.39883   -1.93714
       O     6.37492   16.28029   -1.95561
      H1     6.54237   16.91463   -2.73158
       H     4.60956   18.20390   -0.49212
       O     5.51080   18.15570   -0.12041
      H1     6.00831   17.46239   -0.55910
       H     8.43583   10.92771   -4.45519
       O     7.92003   10.13759   -4.42597
      H1     8.58470    9.45332   -4.42497
       H    10.61326   16.56176   -5.01355
       O    11.26263   17.12193   -5.33904
      H1    11.70460   17.22536   -4.47117
       H     6.08533   15.85660   -9.28612
       O     6.29496   15.73232   -8.34338
      H1     6.69614   14.86182   -8.15120
       H    10.92381   19.31122   -9.20900
       O    11.74143   19.69194   -9.56216
      H1    11.89187   19.19619  -10.34606
       H     7.30014   16.86959  -10.86323
       O     7.10284   17.70074  -10.41247
      H1     7.14925   18.22174  -11.24907
       H     6.81470   13.53600   -6.47889
       O     7.13515   13.78913   -5.66896
      H1     6.26486   13.75197   -5.20748
       H     6.79675   15.63822    3.02753
       O     6.35167   15.86627    2.22390
      H1     7.09958   16.19450    1.70122
       H    15.53595   14.05138   -4.64147
       O    15.08957   14.84288   -4.39365
      H1    14.32748   14.90033   -5.00804
       H    13.82621   14.04200   -7.47141
       O    14.77896   13.96130   -7.45634
      H1    15.22060   14.72561   -7.86388
       H     6.40745   11.76548   -7.48451
       O     6.36056   12.59463   -7.97099
      H1     5.45125   12.81261   -7.95800
       H    10.60241   10.25591   -7.54369
       O     9.73089   10.69020   -7.69380
      H1     9.98120   11.58404   -7.77192
       H    13.18867   11.35329   -6.79015
       O    12.37807   11.00478   -6.42444
      H1    12.30671   10.06224   -6.70101
       H     4.79392   18.14594   -4.86595
       O     3.92120   18.08155   -5.30537
      H1     4.21393   18.33458   -6.22051
       H    12.36532   16.19135   -0.34513
       O    12.01222   17.00646   -0.74401
      H1    12.19721   17.65029    0.00676
       H     2.90589   13.51210   -5.57689
       O     3.11461   12.55125   -5.72858
      H1     2.49609   12.16422   -4.99711
       H    10.17104   17.03738   -9.32572
       O     9.71844   17.83587   -8.98052
      H1     8.75511   17.73149   -9.21562
       H     6.88202   18.44550   -4.94699
       O     6.38414   18.25378   -4.19399
      H1     6.33770   19.13280   -3.79189
       H     9.13389   16.53370   -0.65596
       O     9.42803   17.00772   -1.45971
      H1    10.41910   16.99196   -1.43297

