120
frame 10 | Written by MDAnalysis XYZWriter (release 2.4.3)
       H     3.85361   -4.82434   -5.01299
       O     4.66661   -5.24060   -4.70124
      H1     5.05590   -5.41305   -5.55659
       H     5.12850   -0.04297   -2.29516
       O     4.71608   -0.91840   -2.50336
      H1     5.43316   -1.60863   -2.59821
       H    -0.35200   -8.10298   -2.78606
       O    -0.25606   -8.79577   -3.48810
      H1    -0.95861   -8.61742   -4.12658
       H    -0.66236   -1.95800   -3.39084
       O    -0.69356   -1.97694   -2.41810
      H1    -0.01059   -1.47058   -1.94379
       H     1.59808   -8.04298   -3.66101
       O     2.44573   -7.62807   -3.50543
      H1     2.68161   -7.41826   -4.41493
       H    -2.02844   -5.52266   -3.04229
       O    -2.02911   -5.65686   -3.99441
      H1    -1.80894   -4.74694   -4.28794
       H     1.72477    1.44648   -4.53104
       O     1.57378    2.41793   -4.58004
      H1     0.74888    2.54126   -5.02815
       H     3.56370   -4.54507   -9.35873
       O     2.80280   -4.72997   -9.86033
      H1     2.87519   -5.61464  -10.29161
       H    -3.93664   -2.00142   -1.99505
       O    -3.39581   -2.42535   -2.63609
      H1    -2.49255   -1.98119   -2.59738
       H     1.54030   -4.79537   -5.26717
       O     2.20228   -4.05214   -5.28962
      H1     2.18887   -3.81638   -4.32775
       H    -0.47894   -3.48050   -8.64754
       O    -0.53423   -2.62324   -9.01360
      H1    -1.27994   -2.18991   -8.58367
       H    -0.75687   -5.72409   -9.57203
       O    -1.35180   -6.47871   -9.87014
      H1    -2.25339   -6.10490   -9.99582
       H    -0.00145   -5.21864    1.29496
       O     0.32986   -4.53409    0.65014
      H1     1.24757   -4.37741    0.89304
       H     1.33415   -2.67194   -5.83078
       O     0.91151   -1.78744   -5.76936
      H1     1.01380   -1.37730   -6.62546
       H     3.63126   -9.24533   -9.02343
       O     3.49889   -8.36799   -9.42908
      H1     4.30871   -7.90944   -9.26532
       H     1.43034   -4.97542   -8.80064
       O     0.55842   -4.99462   -8.31705
      H1     0.84211   -5.05005   -7.42838
       H     1.03671   -3.15061   -2.63024
       O     1.94344   -3.40775   -2.82934
      H1     2.28965   -3.98389   -2.15015
       H     4.18791   -5.05489   -2.84044
       O     3.61876   -5.40765   -2.14561
      H1     3.10115   -6.06995   -2.59887
       H     5.47817   -3.38426   -8.30527
       O     4.56701   -3.30350   -7.98306
      H1     4.06102   -2.64440   -8.46281
       H     3.02010   -0.42648   -3.36068
       O     2.43056   -0.04042   -4.03355
      H1     1.88384   -0.79426   -4.41276
       H     6.87617   -6.78454   -7.14666
       O     6.16005   -6.19885   -6.95183
      H1     6.47925   -5.35938   -7.32582
       H    -0.80854   -2.72186   -5.75099
       O    -1.57056   -2.86910   -5.19244
      H1    -2.33261   -2.59902   -5.67454
       H     7.72879   -3.40675   -8.13223
       O     7.18820   -4.01880   -8.59002
      H1     7.03983   -3.59435   -9.44527
       H     4.60064   -8.07378   -6.41550
       O     3.68820   -7.96851   -6.04411
      H1     3.11908   -8.41204   -6.65988
       H     0.63537   -6.27659   -0.83338
       O     0.38895   -7.13959   -1.09338
      H1     1.04743   -7.75899   -0.92648
       H     2.51300   -0.92447  -11.29740
       O     3.04718   -1.74143  -11.40597
      H1     2.71401   -2.31187  -10.72493
       H     7.01554   -0.17890   -5.49374
       O     7.83217   -0.69027   -5.40415
      H1     8.24165   -0.26713   -4.59830
       H     1.90742   -7.83377   -7.90551
       O     1.22601   -8.05589   -7.19180
      H1     0.48433   -8.45543   -7.59988
       H     6.33792   -4.18770   -1.83733
       O     6.36876   -3.29087   -2.24780
      H1     6.79819   -3.42086   -3.10463
       H    -4.95538   -6.51496   -5.09686
       O    -4.36939   -6.12799   -5.81583
      H1    -3.72173   -5.72691   -5.24487
       H    -1.09367   -4.76647   -1.07125
       O    -2.02189   -4.69867   -1.41806
      H1    -2.05319   -3.81126   -1.81444
       H     5.09140   -8.33732   -1.49274
       O     4.62165   -7.71283   -0.91199
      H1     4.44982   -6.92651   -1.48715
       H     4.29505   -2.16541   -6.29663
       O     4.68281   -1.47473   -5.69527
      H1     4.01015   -1.11586   -5.03380
       H     4.25162   -1.18036    0.63201
       O     4.32158   -2.10090    0.34993
      H1     4.48750   -2.02673   -0.57404
       H     0.46524   -6.87730   -6.27826
       O     0.35974   -6.02855   -5.71108
      H1    -0.29871   -6.14326   -5.01894
       H     4.43426   -9.58099   -4.67963
       O     4.00691  -10.10134   -3.98737
      H1     3.32525   -9.46846   -3.75252
       H     5.62530   -6.44638   -8.62617
       O     5.45555   -6.67535   -9.59639
      H1     6.21477   -7.16918   -9.83979
       H     6.62450   -4.54642   -4.80342
       O     7.39810   -3.94749   -4.72181
      H1     7.16573   -3.05949   -5.09211
       H     4.89522    0.06586   -6.63184
       O     5.09951    0.79407   -7.28111
      H1     4.59081    1.55886   -7.04506
       H     2.26931   -0.51260   -8.48480
       O     2.06980   -1.36127   -8.12220
      H1     1.39961   -1.66689   -8.73939

