120
frame 0 | Written by MDAnalysis XYZWriter (release 2.4.3)
       H     7.43718  -16.78683  -10.63452
       O     7.87115  -17.44573  -11.16166
      H1     8.79648  -17.32221  -10.86479
       H     8.04777  -19.97717  -13.38668
       O     7.49088  -20.02272  -12.65285
      H1     7.60930  -19.15719  -12.24367
       H    18.63471  -17.56648  -11.09014
       O    18.01708  -18.09054  -10.46371
      H1    17.19772  -17.70695  -10.70041
       H    14.92702  -19.31739  -17.28978
       O    15.52459  -18.53045  -17.35551
      H1    15.40759  -18.05898  -16.51416
       H    13.62986  -10.46770   -9.05475
       O    14.35740  -11.02434   -8.70189
      H1    14.75226  -10.34487   -8.07999
       H     6.67395  -17.85099  -14.85826
       O     5.75458  -17.91111  -15.05202
      H1     5.47459  -17.08561  -14.62265
       H     5.57889  -17.19377   -8.87289
       O     5.43619  -16.94175   -9.79947
      H1     4.98542  -16.03127   -9.73184
       H     6.43652  -19.57856   -8.42554
       O     7.13072  -18.95980   -8.34235
      H1     7.63602  -19.25137   -9.16760
       H    13.67464  -18.85269   -8.06275
       O    14.67097  -18.97069   -8.05601
      H1    14.84159  -19.62012   -7.33815
       H    16.67160  -16.35801  -15.25706
       O    15.90251  -16.95864  -15.03462
      H1    16.15966  -17.74078  -14.54725
       H     9.50566  -15.84651   -5.01057
       O    10.43083  -16.01555   -5.25274
      H1    10.96539  -15.21455   -5.05122
       H    12.48409  -13.42821  -14.81473
       O    12.98459  -14.14392  -15.22496
      H1    13.63531  -14.24803  -14.44711
       H     9.31728  -16.38107   -7.78449
       O    10.25564  -16.75160   -7.83981
      H1    10.55027  -16.71075   -6.88267
       H     9.31016  -17.03471  -13.52551
       O     8.42207  -16.88283  -13.97604
      H1     7.83365  -16.85721  -13.19252
       H     9.21448  -11.99128   -7.14238
       O     8.33997  -12.09366   -6.64787
      H1     7.75599  -11.60287   -7.23304
       H    11.83254   -9.19490   -9.41426
       O    12.29097   -9.78748  -10.05299
      H1    11.66572  -10.52179  -10.09701
       H    17.20688  -19.64290  -14.59409
       O    17.09370  -19.10625  -13.77704
      H1    16.80389  -19.73195  -13.10543
       H    16.74906  -14.15889  -10.22559
       O    17.59296  -13.87807   -9.85785
      H1    18.08501  -14.70154  -10.02643
       H    11.87922  -15.92798  -11.23615
       O    12.50009  -15.34765  -11.73983
      H1    13.23719  -15.25906  -11.11053
       H    12.77803  -16.16060  -13.80244
       O    12.99648  -16.80560  -14.52214
      H1    13.87578  -16.50161  -14.78262
       H     5.49687  -14.58587  -11.51646
       O     6.45543  -14.70346  -11.79378
      H1     6.90814  -13.87483  -11.70364
       H    12.16758  -11.57570   -7.05307
       O    11.29955  -11.15122   -6.87033
      H1    11.58834  -10.31400   -6.41394
       H    15.62034  -14.03796  -14.12785
       O    15.34599  -14.68439  -13.47047
      H1    15.66958  -15.46565  -13.92039
       H     8.19525  -14.26280   -7.20247
       O     8.08424  -15.10560   -7.58018
      H1     7.36875  -15.49551   -7.07489
       H    10.93467  -17.97607  -10.38427
       O    10.50233  -17.07256  -10.46705
      H1    10.43197  -16.71242   -9.59975
       H    15.11074  -15.85848  -10.73874
       O    15.08678  -14.87947  -10.71199
      H1    15.02927  -14.61049  -11.69791
       H    10.48365  -12.07939  -15.81441
       O    10.57968  -12.64389  -14.99772
      H1     9.89766  -12.22132  -14.40176
       H     9.39797  -14.13462  -15.97206
       O     8.75682  -14.57899  -16.53225
      H1     8.65072  -15.42967  -16.13789
       H    12.02501  -19.76329  -15.88007
       O    11.75426  -19.66440  -14.98075
      H1    11.91546  -18.70241  -14.91661
       H    15.04280  -15.35739   -5.44541
       O    14.81082  -14.42948   -5.64522
      H1    14.93848  -13.94639   -4.81299
       H    11.71193  -13.81684   -8.34067
       O    10.75435  -13.86884   -8.56478
      H1    10.75956  -14.83426   -8.33246
       H     7.81116  -10.70773  -13.40219
       O     8.49613  -11.39494  -13.45429
      H1     8.72923  -11.55575  -12.54742
       H    15.85519  -14.51217   -7.41830
       O    16.80224  -14.31444   -7.36531
      H1    17.00924  -14.05692   -8.26005
       H    12.35494  -15.61203  -16.56000
       O    12.03416  -15.84037  -17.48395
      H1    11.63936  -16.70919  -17.35576
       H    13.66587  -12.77870   -8.24122
       O    13.34149  -13.57800   -7.82863
      H1    13.85143  -13.80601   -7.07135
       H    16.37281  -11.27677  -11.76248
       O    15.43203  -11.21432  -11.68348
      H1    15.25658  -11.23002  -10.77866
       H     6.55770  -12.72266   -9.38969
       O     5.97282  -12.78241   -8.64544
      H1     6.35060  -13.53403   -8.26885
       H    11.04753  -12.86042  -10.13588
       O    10.81768  -12.49751  -10.99349
      H1    11.40309  -12.93788  -11.62512
       H    14.95178  -18.43944  -11.39112
       O    15.21177  -17.72931  -10.79703
      H1    15.12713  -18.25083   -9.96119
       H     8.75263  -12.61674  -10.45914
       O     7.86988  -12.27375  -10.72347
      H1     7.97132  -11.32354  -10.63337

