120
frame 1 | Written by MDAnalysis XYZWriter (release 2.4.3)
       H     8.43510   10.53262    2.63771
       O     8.08790   10.76661    3.53023
      H1     8.91257   11.19749    3.81896
       H    14.97653    5.33088    4.21929
       O    14.56559    6.15204    4.43977
      H1    13.63250    5.83552    4.36491
       H    12.03931    2.86177    9.50678
       O    12.37117    2.79240    8.63434
      H1    13.20176    3.26089    8.52271
       H    14.23880   10.20795    4.76199
       O    14.77199   11.03283    4.68096
      H1    14.16561   11.70983    4.94610
       H    15.84816    3.58395    9.19834
       O    16.02963    3.20642   10.08450
      H1    16.49425    2.37192    9.98599
       H    18.07727    8.24749    7.01513
       O    17.23438    8.64159    6.66240
      H1    16.61159    7.93653    6.90709
       H    11.90489    9.59195    7.88946
       O    11.30764    8.96453    8.35868
      H1    10.37796    9.19187    8.13227
       H    17.47295    7.03543    2.58912
       O    17.28519    6.47549    1.86214
      H1    16.26402    6.49479    1.84638
       H    15.16628    3.54618    6.86496
       O    14.90746    3.99086    7.70682
      H1    14.98068    4.90653    7.35040
       H    13.28848   10.16258    9.67787
       O    12.77981    9.79358   10.47300
      H1    12.12770    9.23628   10.02045
       H    12.47798    6.95855    9.58898
       O    13.11895    6.38358    9.10640
      H1    13.80847    6.06911    9.71754
       H    16.09010    3.82459    1.78164
       O    15.60651    3.93389    2.56831
      H1    15.53631    3.09705    3.04256
       H    12.22969    8.49111    1.78326
       O    13.13858    8.83022    1.87162
      H1    13.35010    9.04173    0.93367
       H    12.27530    4.51839    4.92428
       O    12.71314    4.10436    4.13459
      H1    12.83843    3.17286    4.48298
       H     9.40458    5.38114    8.59029
       O    10.16052    5.69558    8.08002
      H1    10.73779    6.03972    8.76344
       H    10.28941   12.14805    4.76237
       O    10.52407   11.20322    4.87086
      H1    11.13861   10.99780    4.10781
       H     7.74012    8.73139    3.92780
       O     8.14016    7.89624    4.03853
      H1     7.55368    7.37446    3.48141
       H    14.76839    5.59880    2.02457
       O    14.57329    6.41918    1.46555
      H1    14.26151    7.07807    2.11541
       H    12.66410    8.76133    6.16370
       O    13.62267    8.86379    6.01220
      H1    13.99457    8.08066    6.36772
       H     9.95840    2.48020    3.09164
       O     9.63115    2.14745    2.16848
      H1     8.79142    1.83080    2.46268
       H    17.53988    3.83466    5.60089
       O    17.36095    4.64227    5.10140
      H1    17.46526    4.24344    4.20682
       H    10.83932    6.65164    2.67719
       O    10.91951    7.50629    3.13509
      H1    10.04271    7.93980    3.16565
       H    11.34546   -0.27574    7.62628
       O    12.15799    0.23117    7.61337
      H1    11.97521    0.99876    8.13024
       H    11.22757   11.39204    1.91452
       O    11.90511   11.20143    2.56454
      H1    12.30146   10.39544    2.13586
       H    11.69504    4.41902    2.13147
       O    11.67996    5.27241    1.65907
      H1    12.63882    5.45653    1.76936
       H    14.72254    6.33851    6.15441
       O    15.01022    6.56392    7.07740
      H1    14.21406    6.60825    7.58952
       H    11.41242    6.03076    6.48691
       O    11.98679    6.41758    5.76049
      H1    11.30042    6.86588    5.20916
       H     9.40898    3.48619    5.65838
       O    10.09759    2.76480    5.55277
      H1    10.48858    2.70826    6.45361
       H    10.77394    6.22772   11.06126
       O    11.13889    7.14298   10.94373
      H1    10.36758    7.54255   10.48555
       H    14.53378   11.29729    8.39526
       O    13.70843   10.87602    8.03780
      H1    13.96217   10.30139    7.27598
       H     8.38082    7.55128    9.30986
       O     8.57933    8.02967   10.13417
      H1     8.05435    7.55920   10.84506
       H     7.87773    7.98240    6.05057
       O     7.07006    7.77636    6.52009
      H1     6.72221    7.26637    5.78182
       H    12.66975    1.23374    6.17065
       O    12.78444    1.53515    5.22472
      H1    12.08470    0.89470    4.88333
       H     4.82798    4.41319    7.03211
       O     5.30592    5.10360    6.58212
      H1     6.22155    4.75814    6.65829
       H     7.06698    6.64471    7.82276
       O     7.26199    6.06083    8.58905
      H1     6.37194    5.70033    8.81834
       H     8.66715    5.55586    6.08444
       O     8.32395    4.82671    5.65594
      H1     8.16390    5.00163    4.71141
       H     9.20688   10.40945    6.46137
       O     8.73562    9.98853    7.21901
      H1     8.80993   10.73444    7.86935
       H    17.44661    6.09254    9.18755
       O    17.48002    6.26355    8.22348
      H1    16.58665    5.91682    7.98289
       H    14.64945    1.64305    5.22098
       O    15.47113    1.61077    4.77335
      H1    16.10472    1.66433    5.52654
       H    17.51557    8.90752    4.73898
       O    17.90177    8.75909    3.85334
      H1    18.80331    9.14301    3.91669

