120
frame 4 | Written by MDAnalysis XYZWriter (release 2.4.3)
       H    18.71716    3.67064   -6.17345
       O    19.27833    3.38347   -5.48398
      H1    19.58665    2.49423   -5.69223
       H    16.46722    9.18091   -6.84237
       O    15.95997    9.92076   -7.18871
      H1    15.12817   10.06313   -6.76317
       H    19.39237   12.37296    2.04445
       O    18.65246   12.78988    2.38967
      H1    18.36036   12.36348    3.19729
       H    19.40075    5.04112  -10.23581
       O    19.87452    5.81268   -9.94620
      H1    19.23761    6.49185  -10.29393
       H    16.97818   14.82564   -4.98903
       O    16.54029   15.58344   -5.44213
      H1    16.05004   15.07757   -6.05945
       H    18.60537    5.23457    2.02554
       O    19.29102    5.80330    2.44482
      H1    19.91590    5.86856    1.74715
       H    12.31234    5.62583   -6.57185
       O    11.96141    5.06650   -5.86149
      H1    12.35931    5.51660   -5.08709
       H    14.17513   11.72641   -4.21440
       O    14.53905   12.31736   -3.57067
      H1    13.94834   13.07916   -3.50578
       H    15.84938    9.65559   -8.92576
       O    15.56804    9.74043   -9.82875
      H1    15.25441   10.63737   -9.82375
       H    15.45613   13.20774   -9.07307
       O    15.13501   12.40324   -8.67798
      H1    15.87008   12.05288   -8.16266
       H    16.37122   10.45767   -3.19374
       O    17.13833   10.14739   -2.66128
      H1    16.66035    9.90430   -1.88640
       H    14.76832    2.79222   -6.24342
       O    14.71076    2.98137   -5.28003
      H1    14.69565    3.98787   -5.30239
       H    14.49758   10.82328   -0.15379
       O    15.25150   11.19335    0.28678
      H1    14.85516   11.50841    1.07816
       H    12.01610    6.45221   -1.72222
       O    12.07271    6.68032   -0.77340
      H1    11.28863    7.01899   -0.34342
       H    15.95200    6.58765   -5.91660
       O    15.33568    5.95115   -5.48509
      H1    15.92489    5.73609   -4.73751
       H    17.91286    9.26970    2.16586
       O    18.23561    9.65312    2.99059
      H1    18.89567    9.05053    3.37859
       H    18.98338   11.89046   -7.15600
       O    18.69044   11.18335   -7.80824
      H1    17.92819   10.79391   -7.31930
       H    16.54765    9.94302    0.46938
       O    16.95218    9.11116    0.57902
      H1    16.15130    8.53413    0.74118
       H    11.78688   10.76150   -2.24263
       O    12.03054    9.86855   -2.58633
      H1    11.44534    9.53578   -3.24663
       H    19.12566   12.56517   -9.14938
       O    19.39410   12.38161  -10.07279
      H1    19.85154   13.21011  -10.37836
       H    16.79875    1.74461   -0.82877
       O    16.27094    1.64456   -1.66259
      H1    16.61315    2.29829   -2.29646
       H    18.18873   12.95207   -4.34580
       O    17.35788   13.37185   -4.16623
      H1    17.12248   13.51440   -3.26158
       H    18.06482    5.02382   -2.68157
       O    18.57305    5.80793   -2.59748
      H1    18.37025    6.41410   -3.31037
       H    13.49123    5.40081   -2.89224
       O    12.91568    6.12589   -3.25130
      H1    13.44038    6.78492   -3.75164
       H    16.24308    3.37493   -4.24912
       O    17.03755    3.59889   -3.66219
      H1    17.82195    3.24158   -4.07705
       H    17.77596    9.00660  -10.49050
       O    18.40933    8.31421  -10.58326
      H1    18.32137    7.89011  -11.48772
       H    14.69539   13.06505   -5.49405
       O    14.47285   13.63872   -6.24029
      H1    14.84857   13.22138   -7.02657
       H    17.78778    7.66377   -7.00545
       O    17.46554    7.76427   -6.09624
      H1    18.18151    8.11571   -5.52745
       H    12.68334   10.31414   -6.46393
       O    13.47745   10.41735   -5.96014
      H1    13.50883    9.56631   -5.42427
       H    19.80844    8.39542   -3.88266
       O    18.86730    8.29854   -3.85664
      H1    18.56015    8.97909   -3.25608
       H    16.06659    4.14395   -7.88412
       O    17.03600    4.40238   -7.78923
      H1    17.44247    4.07493   -8.61876
       H    14.95176    6.85426    0.19834
       O    14.30427    7.59400    0.28308
      H1    13.46231    7.29709   -0.08038
       H    13.62090    9.53013   -1.98293
       O    14.58381    9.45217   -1.85826
      H1    14.73402    8.74792   -1.25245
       H    14.82155    7.42646   -4.43715
       O    14.12821    8.14062   -4.36125
      H1    14.36759    8.61169   -3.59779
       H    13.57987    7.85873   -8.67590
       O    13.71819    6.85701   -8.65593
      H1    14.67999    6.73494   -8.67671
       H    15.92413   12.56021   -2.36803
       O    16.24481   13.18553   -1.64150
      H1    16.34540   12.53333   -0.89651
       H    18.44156    8.36436   -0.19624
       O    19.22725    8.01983   -0.63096
      H1    18.78160    7.34798   -1.13669
       H    17.33406    7.11807   -9.31913
       O    16.80392    7.04401   -8.55035
      H1    16.91213    6.13553   -8.26772
       H    15.38687    4.09292   -1.82199
       O    14.46141    4.33154   -1.91578
      H1    14.13464    4.54097   -1.05917
       H    16.85564    5.23815    0.41206
       O    16.37541    5.88860   -0.04730
      H1    16.81642    6.12428   -0.84222

