120
frame 2 | Written by MDAnalysis XYZWriter (release 2.4.3)
       H    17.23890  -11.64064   -5.45374
       O    16.50252  -11.30132   -5.97360
      H1    16.41726  -10.31872   -5.93775
       H    18.22302  -17.32452   -7.10468
       O    18.41565  -16.67277   -6.42065
      H1    18.71013  -17.16480   -5.63965
       H    16.67676  -13.98737    0.29032
       O    16.63737  -13.10824   -0.11308
      H1    16.29412  -13.21678   -0.99367
       H    18.48055   -8.60274   -8.58533
       O    18.00159   -9.29008   -8.13776
      H1    17.46063   -8.84702   -7.46885
       H    17.45477  -11.60079   -0.25848
       O    18.03453  -10.87509   -0.51321
      H1    18.54749  -10.63175    0.27767
       H    13.13586  -16.24009   -2.83023
       O    13.29836  -15.86674   -3.66807
      H1    14.19663  -16.18324   -3.80994
       H    16.85499   -9.73970    0.24415
       O    16.64401   -8.86531    0.57742
      H1    15.93792   -8.88758    1.28146
       H    14.10395  -11.79136    1.90536
       O    14.26963  -11.66084    0.95246
      H1    15.06171  -12.16378    0.83425
       H    14.80025  -11.53190   -5.01390
       O    14.12999  -11.86559   -4.40235
      H1    13.87665  -11.05502   -3.93733
       H    15.96558  -16.28835   -5.18278
       O    15.77836  -16.99336   -4.54975
      H1    15.90554  -17.81675   -5.02910
       H    13.87838  -18.41544   -2.21329
       O    13.67709  -17.67497   -1.64189
      H1    13.54288  -17.90154   -0.72215
       H    12.86479  -13.05849    0.44250
       O    11.98986  -13.09619   -0.01020
      H1    11.82256  -13.99190   -0.37256
       H    13.47939  -11.71217  -10.85480
       O    13.28005  -11.25495  -10.05286
      H1    13.85567  -10.49851   -9.93665
       H    13.19663   -9.46576   -2.22086
       O    13.92975   -9.27643   -2.77472
      H1    14.61334   -8.87878   -2.29403
       H    12.21944  -14.61067   -6.22762
       O    12.34933  -15.41567   -6.66391
      H1    11.67463  -15.55340   -7.33878
       H    15.81819  -14.19480   -2.73917
       O    16.02628  -13.28654   -3.05334
      H1    15.21644  -12.91269   -3.45185
       H    12.47768   -8.66852   -5.53863
       O    13.28699   -8.13826   -5.49328
      H1    13.55378   -8.34474   -4.58382
       H    14.77711  -15.08088   -6.40983
       O    15.66748  -14.68864   -6.30668
      H1    15.54715  -13.79109   -6.00147
       H    16.58652   -6.29635   -8.06040
       O    17.08831   -5.85142   -7.36298
      H1    16.76598   -6.23150   -6.53872
       H    19.14398  -13.04193   -9.67275
       O    19.19803  -13.23937  -10.63496
      H1    19.54904  -14.19230  -10.64606
       H    15.06230  -13.63484   -8.43077
       O    14.33101  -13.64199   -8.96374
      H1    14.17504  -12.78318   -9.35539
       H    12.11231  -14.39005   -4.27932
       O    11.99947  -13.47967   -4.65671
      H1    12.79580  -13.00115   -4.47164
       H    17.39031  -15.94961   -9.56616
       O    17.45535  -16.56833  -10.28673
      H1    18.34244  -16.52623  -10.61128
       H    18.33239   -8.85047   -3.91157
       O    18.26711   -8.01970   -4.42479
      H1    18.49661   -7.32905   -3.75515
       H    17.28110  -15.76131    1.52909
       O    16.36712  -15.90694    1.40490
      H1    15.89966  -15.45686    2.14603
       H    17.37705   -6.65702  -10.27078
       O    16.45568   -6.84362  -10.22220
      H1    16.43916   -7.81338  -10.12579
       H    18.86245  -13.22955   -4.89588
       O    18.31580  -12.63884   -4.39639
      H1    17.61770  -13.03614   -3.78226
       H    18.44737   -6.28319   -8.51933
       O    18.94056   -6.50720   -9.33541
      H1    18.91486   -5.70323   -9.93223
       H    18.24766  -11.01560   -7.82301
       O    18.52289  -11.97100   -7.81255
      H1    17.80634  -12.34426   -7.37666
       H    16.63361   -9.74459   -9.45759
       O    16.01616   -9.62226  -10.15779
      H1    16.46443   -9.94417  -10.97021
       H    15.49393   -8.09268   -5.99466
       O    16.26359   -8.69295   -6.06111
      H1    16.89790   -8.29836   -5.42369
       H    15.73131   -6.57027   -1.21466
       O    15.59561   -7.46877   -1.49366
      H1    16.17213   -7.94675   -0.96171
       H    17.18070  -13.03793  -11.08066
       O    16.37430  -13.10868  -11.65413
      H1    16.76499  -13.44485  -12.46580
       H    16.25936  -16.05160   -3.05314
       O    16.11898  -15.91088   -2.09142
      H1    15.30787  -16.37837   -1.89110
       H    17.43631  -17.24450   -1.43397
       O    18.35101  -17.55089   -1.33936
      H1    18.18729  -18.46562   -1.20510
       H    11.43734  -12.48652   -1.60457
       O    10.86442  -12.20531   -2.29555
      H1    11.11077  -12.65472   -3.11158
       H    19.08168  -10.95499   -3.32314
       O    18.99695  -10.09419   -2.90720
      H1    18.62307  -10.29793   -1.95626
       H    16.82172  -11.45078  -12.33767
       O    16.97119  -10.53548  -12.51628
      H1    16.50881  -10.25701  -13.27360
       H    17.54319  -18.17606   -9.37868
       O    17.76913  -18.58095   -8.50720
      H1    17.02260  -19.20348   -8.28646
       H    13.56888  -15.03105   -9.56929
       O    13.20390  -15.84707   -9.94403
      H1    13.78632  -16.16522  -10.68372

