120
frame 0 | Written by MDAnalysis XYZWriter (release 2.4.3)
       H   -12.64978   19.48352   -8.17908
       O   -12.82893   19.64742   -9.13713
      H1   -12.59165   18.79161   -9.50667
       H    -5.30914   18.52425   -7.80428
       O    -4.53760   18.97297   -8.03617
      H1    -4.37855   19.48845   -7.20093
       H    -5.18348   16.74913   -5.31194
       O    -4.26738   16.71518   -5.23407
      H1    -4.25876   16.28184   -4.33952
       H   -12.75009   18.89057   -3.54705
       O   -12.18414   18.12598   -3.57160
      H1   -11.85008   18.17081   -2.69632
       H    -7.42056   17.09654   -5.55764
       O    -7.02496   16.42132   -5.01366
      H1    -7.34676   15.58036   -5.31346
       H    -6.82045   17.51920   -1.12629
       O    -6.70119   18.17239   -0.42081
      H1    -6.04561   18.78626   -0.76012
       H    -5.23978   12.29684    0.09743
       O    -5.64245   12.40833   -0.76817
      H1    -6.41591   11.82219   -0.71848
       H    -8.28856   16.20078   -2.37194
       O    -7.31173   16.34258   -2.40221
      H1    -7.27126   16.48601   -3.31495
       H   -11.20518   13.87488   -2.56779
       O   -10.30834   14.18054   -2.47900
      H1    -9.94629   13.38096   -2.08944
       H   -10.48556   10.53013   -1.49432
       O   -10.74473   11.21089   -2.17244
      H1    -9.97362   11.16019   -2.83619
       H    -4.89193   14.40589   -2.59099
       O    -4.09373   14.80579   -3.05661
      H1    -3.68472   14.05826   -3.50892
       H    -7.52127   18.73330   -7.83032
       O    -7.11706   18.00202   -7.35022
      H1    -7.31208   17.17283   -7.77187
       H   -13.68787   17.94329    0.81822
       O   -13.82840   17.95427   -0.16496
      H1   -14.29671   18.76957   -0.31308
       H   -11.17499   16.41779   -6.95402
       O   -10.24322   16.51178   -6.62085
      H1   -10.29592   16.37305   -5.68167
       H   -10.42941   14.28519  -10.75320
       O   -11.06435   13.81937  -10.22904
      H1   -11.19872   14.57381   -9.59285
       H   -12.39995   14.94490   -7.41405
       O   -12.50735   15.54180   -8.24419
      H1   -13.12528   16.22937   -7.82356
       H    -8.14178   10.65717   -4.53990
       O    -8.19896   11.25037   -3.76155
      H1    -7.23093   11.18810   -3.44997
       H   -14.99964   16.28493   -4.15874
       O   -14.17243   15.95430   -3.73158
      H1   -13.51061   16.54662   -4.16509
       H    -8.12417   14.20015   -4.30416
       O    -7.66588   13.86247   -5.08836
      H1    -7.61176   12.97623   -4.80933
       H    -7.68851   14.40146   -8.70458
       O    -7.54238   15.29391   -9.06488
      H1    -6.59816   15.50054   -8.91152
       H   -12.43713   18.52519   -6.27560
       O   -12.24022   19.47230   -6.45881
      H1   -11.29325   19.55059   -6.28431
       H   -10.34591   15.57335   -3.61068
       O   -10.06214   16.35372   -4.10811
      H1   -10.68462   17.00357   -3.78481
       H   -12.73670   16.70917   -9.81375
       O   -12.43454   17.31975  -10.50689
      H1   -13.26078   17.38419  -11.06120
       H    -8.74283   13.90555   -6.48178
       O    -9.45029   13.96072   -7.20043
      H1    -9.36166   14.92221   -7.32087
       H    -5.20384   11.89101   -2.35935
       O    -5.61776   11.46293   -3.15198
      H1    -5.03829   10.69520   -3.19613
       H   -15.92438   16.30490   -1.64945
       O   -15.92296   15.29303   -1.70856
      H1   -15.10021   15.15063   -2.26439
       H   -10.68748   15.24646   -1.12729
       O   -11.17493   15.50186   -0.32983
      H1   -11.05514   16.45390   -0.46551
       H    -5.40440   14.18795   -6.30220
       O    -4.45957   14.24901   -6.62440
      H1    -4.22837   15.06386   -6.13003
       H    -9.77781   19.15265    1.95267
       O   -10.60229   19.36635    2.36251
      H1   -10.37532   19.69455    3.24913
       H   -12.30443   13.76165   -5.39124
       O   -12.03951   13.80693   -6.31663
      H1   -11.02726   13.63814   -6.31573
       H   -16.30525   18.47855   -4.40383
       O   -15.87527   18.39561   -3.52504
      H1   -16.56701   17.93935   -2.99016
       H    -5.63239   15.76184    1.05643
       O    -5.06560   15.43015    0.35885
      H1    -5.61037   14.69095   -0.03836
       H   -12.32358   12.45027   -7.19936
       O   -12.52474   11.52480   -7.40030
      H1   -13.50611   11.53505   -7.10673
       H   -14.44788   17.98482   -7.10499
       O   -14.09024   17.25498   -6.59097
      H1   -14.91285   16.70209   -6.66428
       H    -9.59967   15.70642    0.67860
       O    -8.64531   15.53258    0.90549
      H1    -8.77415   14.86252    1.63888
       H   -14.48634   15.22178   -0.29677
       O   -13.85818   14.98951    0.37605
      H1   -12.99713   15.12422   -0.04865
       H   -13.55465   10.43677   -0.74234
       O   -13.80209   11.37967   -0.78361
      H1   -13.50569   11.69128   -1.63619
       H   -12.03894   18.21658   -0.57403
       O   -11.29348   18.11103   -1.20279
      H1   -10.52904   18.67951   -0.76200
       H   -13.43717   14.22743   -4.01785
       O   -12.78123   13.51628   -3.81848
      H1   -13.44667   12.87845   -3.71858
       H    -9.53089   18.22237   -5.91553
       O    -9.42737   19.10407   -5.63446
      H1    -8.54791   19.34135   -5.96336

