120
frame 9 | Written by MDAnalysis XYZWriter (release 2.4.3)
       H    -4.42875    5.08003   12.90129
       O    -4.35225    4.24465   12.31208
      H1    -4.29947    3.49098   12.90730
       H    -7.24054    2.00134   11.05425
       O    -6.57676    1.68087   11.64652
      H1    -6.29652    2.40740   12.12155
       H   -12.10725    1.40119   12.15945
       O   -12.39145    0.65406   12.70076
      H1   -11.95970    0.76021   13.58342
       H    -3.62040   -2.84433   11.87163
       O    -4.26180   -2.20415   12.25748
      H1    -3.63922   -1.73654   12.84632
       H    -6.84282   -0.54847    6.80603
       O    -6.40062   -0.06340    6.12605
      H1    -5.56355    0.21898    6.60809
       H   -11.25171    4.06188    6.66020
       O   -10.36166    3.75632    6.47596
      H1    -9.72956    4.14902    7.13550
       H    -1.88825    5.32071    9.41315
       O    -2.31778    4.72284    8.75089
      H1    -3.17734    4.46862    9.16789
       H    -6.87627   -4.43574   11.41365
       O    -6.70577   -4.54803   12.40055
      H1    -6.59807   -3.72321   12.78737
       H    -1.54769   -0.30309   13.04021
       O    -1.99511   -0.73303   13.85164
      H1    -2.00049   -0.04802   14.52326
       H    -9.03635    2.60330    9.71605
       O    -9.17241    2.04687   10.48478
      H1    -9.90928    2.38358   11.02301
       H    -7.04093    1.56152   14.51669
       O    -6.73254    2.43947   14.96821
      H1    -7.39447    3.03046   15.13052
       H    -2.21068    7.30500   10.56790
       O    -2.04016    6.38586   10.84080
      H1    -2.65719    6.12307   11.53706
       H    -5.04265    6.39073    9.17515
       O    -4.82693    6.91487    9.96328
      H1    -5.18648    7.74720    9.60862
       H    -7.73357   -4.32795    8.84665
       O    -7.10717   -3.89041    9.46924
      H1    -6.23701   -4.22942    9.17590
       H    -9.26263    4.84042   12.67016
       O    -9.88266    5.12762   11.95758
      H1   -10.33842    4.36579   11.64457
       H    -6.90824    1.72546    5.71695
       O    -6.93684    2.55895    5.16975
      H1    -6.20903    3.22892    5.39470
       H    -8.31218    4.83465    9.00040
       O    -8.26470    3.99027    8.51486
      H1    -7.53718    4.06753    7.94813
       H   -10.04994    1.61384    6.65097
       O    -9.89457    0.71234    6.85164
      H1   -10.13430    0.64555    7.81312
       H    -2.03563   -2.43110   10.28325
       O    -1.51239   -1.62501   10.24769
      H1    -1.58340   -1.40845    9.29042
       H    -8.69856   -1.20048   17.30109
       O    -8.57359   -1.67263   16.44635
      H1    -7.73407   -2.20281   16.61146
       H    -5.52973    4.50961    8.28758
       O    -5.63373    5.27881    7.70540
      H1    -5.29696    5.05477    6.81190
       H   -12.22032    3.36255   11.24859
       O   -11.46325    2.99688   11.68894
      H1   -11.51917    3.24472   12.61094
       H    -5.85082   -2.14883   13.33791
       O    -6.25166   -2.18894   14.18630
      H1    -6.98024   -1.57766   14.20639
       H    -5.65442    6.30380   11.84132
       O    -6.54498    6.34229   12.23132
      H1    -6.42405    6.58382   13.20356
       H    -5.70739   -1.14785    9.69227
       O    -4.73872   -1.26763    9.62638
      H1    -4.43874   -1.45418   10.49456
       H    -4.13863   -0.38407   16.72608
       O    -3.69721   -1.16321   17.07123
      H1    -2.81108   -1.21152   16.65668
       H    -4.20607   -0.33713    8.28005
       O    -3.95577    0.21079    7.50653
      H1    -3.56739    0.96835    7.94808
       H    -9.92226    4.38305   14.85720
       O    -9.04356    4.48515   15.16595
      H1    -9.07461    5.23896   15.73949
       H    -9.00312    5.99149   10.67510
       O    -8.47819    6.32316    9.89424
      H1    -7.53869    6.14023   10.22682
       H    -8.73105   -1.78262    7.94774
       O    -7.86174   -1.47572    8.15006
      H1    -7.39719   -2.37110    8.22199
       H    -1.62957    0.35228   11.17350
       O    -1.16164    0.76374   11.86476
      H1    -0.18121    0.50129   11.83242
       H    -7.12142    0.60444   12.75665
       O    -7.49775    0.21163   13.59123
      H1    -8.49817    0.39585   13.51464
       H    -8.65690   -2.75353   11.29151
       O    -9.42714   -2.28306   11.72623
      H1    -9.69446   -1.59795   11.06958
       H   -11.40668   -0.76582   10.04057
       O   -10.67187   -0.41237    9.48700
      H1   -10.47852    0.47101    9.87819
       H    -7.08716    0.87188    8.40833
       O    -6.36438    1.29010    8.96551
      H1    -6.41762    0.88322    9.84260
       H    -5.62393    1.03259   17.61268
       O    -5.23225    1.26398   16.77335
      H1    -5.97941    1.63163   16.25224
       H    -3.44308    1.66926   14.43659
       O    -4.13563    1.89399   13.83494
      H1    -4.91985    2.04097   14.33882
       H    -1.76504    3.80720   12.73394
       O    -0.95033    3.69210   12.19425
      H1    -0.95522    2.72448   12.02534
       H    -4.45801    3.95788   10.54142
       O    -4.56840    3.59378    9.64491
      H1    -4.93913    2.73378    9.86251
       H   -10.37044    1.04586   15.53286
       O   -10.78389    0.62545   14.80043
      H1   -11.00527   -0.22069   15.14334

