120
frame 3 | Written by MDAnalysis XYZWriter (release 2.4.3)
       H     2.87385  -20.09318   -2.89722
       O     3.24316  -19.21290   -2.62860
      H1     2.87750  -19.15151   -1.73115
       H    -0.65727  -16.33865    1.17911
       O     0.30341  -16.49043    0.95150
      H1     0.74753  -15.89577    1.54568
       H     0.22552  -12.43202    5.72787
       O     0.32713  -11.58135    6.18603
      H1     1.26323  -11.37976    6.05593
       H     2.89547  -14.72757    1.45981
       O     2.63391  -15.20677    2.29597
      H1     3.38473  -15.88484    2.21536
       H    -6.82624  -16.36607    4.74713
       O    -6.15412  -17.13875    4.71389
      H1    -5.63542  -17.01448    3.93742
       H    -5.71580  -19.77106   -2.04634
       O    -5.86939  -19.19797   -1.23848
      H1    -6.71369  -18.74914   -1.36194
       H     0.70212  -14.18187   -4.02863
       O     1.38747  -13.98889   -3.37878
      H1     0.92963  -13.91966   -2.54696
       H     3.82392  -19.64291    8.92344
       O     3.73288  -18.89513    9.57462
      H1     3.96643  -18.12405    9.05031
       H     3.42417  -15.04305   -0.78668
       O     2.91363  -14.30175   -0.39804
      H1     3.45368  -13.52638   -0.67781
       H    -0.02726  -14.02240    4.01288
       O     0.30826  -14.01467    4.91271
      H1     1.27168  -13.97127    4.71035
       H     5.25532  -17.50049    2.98244
       O     4.87372  -17.29695    2.08913
      H1     5.40484  -16.59371    1.84748
       H     6.92370  -15.28927    1.05902
       O     6.08111  -14.97418    1.22585
      H1     5.66490  -14.76097    0.38914
       H    -4.38727  -17.00627    6.18889
       O    -3.56976  -16.50431    6.43045
      H1    -2.95870  -17.04338    5.85387
       H     3.84376  -16.50596    7.23233
       O     3.87701  -16.44266    8.24556
      H1     3.00262  -16.18464    8.61655
       H     0.32686  -18.41299    7.79998
       O     0.00159  -17.51569    7.92162
      H1     0.65994  -16.92056    8.38231
       H    -7.02808  -16.20383    2.49519
       O    -6.22234  -15.62645    2.35833
      H1    -6.15092  -15.60151    1.41202
       H    -2.98518  -18.15027    3.81262
       O    -2.53411  -18.35040    4.62286
      H1    -1.65461  -18.51881    4.29410
       H    -3.52755  -18.34158    9.41516
       O    -3.15450  -17.48338    9.24893
      H1    -3.13803  -17.36191    8.26519
       H    -5.07004  -14.92616   -1.22135
       O    -4.51735  -14.25767   -1.66401
      H1    -3.65144  -14.57262   -1.92624
       H     8.56124  -19.63196    3.20028
       O     7.72705  -19.21255    3.15487
      H1     7.18559  -19.63211    3.81532
       H     3.69255  -16.09535    5.20883
       O     3.55258  -16.91456    5.67159
      H1     2.60778  -16.96670    5.79182
       H    -4.01463  -14.76613    6.00748
       O    -3.98686  -13.82240    5.87982
      H1    -4.54922  -13.52746    5.13489
       H    -6.19143  -12.52400    4.31411
       O    -5.42887  -12.96836    3.79807
      H1    -5.81376  -13.84037    3.51755
       H    -4.83859  -19.23920    0.07223
       O    -4.09420  -19.51314    0.67851
      H1    -4.24195  -18.99127    1.47975
       H    -1.01212  -15.12257   -1.13560
       O    -1.92036  -15.46321   -1.18690
      H1    -1.80138  -16.11698   -1.90016
       H    -2.33312  -15.96392    0.60822
       O    -2.31613  -16.07579    1.55659
      H1    -2.63643  -15.25257    1.89446
       H    -1.36238  -17.99359   10.66537
       O    -0.54086  -18.50514   10.59303
      H1    -0.31475  -18.23116    9.72305
       H     0.17615  -16.83802    6.02600
       O     0.53291  -16.75413    5.18239
      H1     0.59769  -15.79618    5.09795
       H    -3.35654  -17.23035    2.10862
       O    -4.14788  -17.59950    2.51286
      H1    -4.81223  -16.98433    2.31258
       H     4.01972  -17.16471   -1.10682
       O     4.37095  -16.47691   -1.62449
      H1     5.08269  -16.77182   -2.11995
       H     0.14310  -12.94491   -1.00724
       O     0.33205  -13.88195   -0.94154
      H1     1.28664  -13.98068   -0.63407
       H    -1.86933  -17.62410   -3.70809
       O    -1.52912  -17.58086   -2.79029
      H1    -1.86958  -18.41241   -2.35905
       H     3.62632  -15.99307   -3.26715
       O     3.34780  -15.55373   -4.03303
      H1     2.53413  -15.12599   -3.80712
       H     1.87368  -14.76917    9.61765
       O     1.60567  -15.60802    9.27026
      H1     1.80472  -16.15589   10.05326
       H     1.38857  -12.74062    1.60106
       O     0.56803  -13.20399    1.92797
      H1     0.17202  -13.61191    1.20762
       H     3.64145  -13.32422    4.93914
       O     3.01665  -14.07018    4.89321
      H1     2.79650  -14.16996    3.95215
       H     2.08999  -17.18030    0.22874
       O     2.87398  -17.72152    0.19039
      H1     3.48796  -17.50929    0.99393
       H     0.34221  -17.96019    3.52787
       O     0.07692  -18.75650    3.05441
      H1    -0.16262  -18.25215    2.28405
       H    -2.30736  -13.09424    3.27884
       O    -2.27951  -14.05199    3.55473
      H1    -2.45654  -13.99255    4.52007
       H    -1.66823  -15.50441    9.21094
       O    -1.56331  -15.24109   10.13014
      H1    -1.16641  -14.36885   10.30824

