120
frame 3 | Written by MDAnalysis XYZWriter (release 2.4.3)
       H     8.65581   -1.36667    0.02576
       O     8.24652   -2.20985    0.08276
      H1     9.01889   -2.80677    0.12543
       H     5.61548   -1.57472    3.64967
       O     5.24170   -1.04850    2.99288
      H1     5.82570   -0.35457    2.63345
       H     3.76033   -8.47589    2.98115
       O     4.52160   -8.05133    2.52743
      H1     4.03788   -7.36574    2.07329
       H     1.41568   -7.66125    2.26594
       O     1.42744   -7.70425    1.33491
      H1     2.10311   -7.13410    0.96990
       H     3.19035   -5.11007   -5.58049
       O     3.25434   -4.24947   -5.99356
      H1     3.09681   -4.37541   -6.95356
       H     4.70869   -1.29281   -3.16161
       O     4.51370   -2.15352   -3.53808
      H1     4.62895   -2.83100   -2.87579
       H    -0.05420   -7.88322   -2.48513
       O     0.68547   -7.91270   -3.10970
      H1     0.62051   -8.80304   -3.47909
       H     1.28145   -5.73187   -3.27683
       O     0.78652   -4.94506   -3.25755
      H1     1.29828   -4.18206   -3.65151
       H     5.29563   -6.48118    3.73493
       O     5.67990   -6.10495    4.48829
      H1     5.25410   -5.20424    4.53619
       H     5.46598   -2.20731    1.72334
       O     5.80645   -2.79968    0.99185
      H1     6.63101   -2.39096    0.72391
       H     7.18850   -4.74735    3.18581
       O     7.67538   -4.46564    2.43342
      H1     7.20394   -3.77385    1.98742
       H     0.90660   -0.72943   -1.29646
       O     1.24953   -1.67237   -1.25690
      H1     1.35194   -1.94603   -2.18051
       H    -0.04632   -2.86871   -1.55435
       O    -0.88717   -3.36415   -1.76875
      H1    -0.53721   -4.14732   -2.18412
       H     2.19489   -3.26289    2.53005
       O     1.86700   -3.56210    3.42644
      H1     1.14832   -2.92361    3.55676
       H     2.73338   -2.76199   -4.20924
       O     1.79140   -2.52464   -4.16774
      H1     1.45283   -2.83922   -5.04437
       H    10.62222   -4.88533    0.48570
       O     9.82880   -4.85750   -0.07890
      H1    10.21252   -4.91906   -1.01175
       H     5.64484    1.04831   -2.82037
       O     4.89083    0.54599   -3.24869
      H1     4.36039    0.59283   -2.46041
       H     6.63744   -5.25419   -7.37387
       O     6.97509   -4.34397   -7.53073
      H1     6.36577   -3.79455   -6.98071
       H     8.23164   -7.26193   -1.00570
       O     8.60841   -7.03027   -1.87509
      H1     8.86640   -7.94032   -2.25808
       H     4.03260   -7.22493   -4.62310
       O     3.20492   -6.69323   -4.82096
      H1     2.59352   -7.28991   -5.30276
       H    -0.89993   -6.55367   -0.17265
       O    -0.59498   -7.36742   -0.52374
      H1     0.15553   -7.52914    0.03755
       H     3.38433    0.10230   -4.37912
       O     2.48540    0.14865   -4.72247
      H1     1.97254   -0.64286   -4.47098
       H     2.43239   -8.95649   -1.65946
       O     2.51526   -9.57155   -0.91341
      H1     3.45976   -9.54737   -0.66270
       H     7.52432    2.20189   -3.28423
       O     7.33628    1.58181   -2.53750
      H1     8.02819    1.74726   -1.85784
       H     4.42629   -4.04638   -0.91350
       O     5.06325   -4.10223   -1.60453
      H1     5.77899   -3.51413   -1.40605
       H     8.50805   -2.41532   -1.73909
       O     8.79890   -2.42379   -2.65367
      H1     9.74833   -2.17782   -2.46627
       H    11.46654   -5.84740   -2.20753
       O    11.30892   -4.93319   -2.42340
      H1    10.99432   -5.00310   -3.33907
       H     3.93378   -6.05558   -0.27567
       O     3.44487   -5.95726    0.54454
      H1     3.22448   -5.03382    0.55660
       H     5.31046   -2.85631   -5.35677
       O     5.99789   -2.43473   -5.91594
      H1     6.66120   -2.01976   -5.35915
       H     2.44392   -2.64526   -0.07471
       O     2.86408   -3.29087    0.55592
      H1     3.62868   -2.81364    0.85330
       H     9.19709   -6.80412    0.81177
       O     8.33510   -6.91146    1.26135
      H1     8.05210   -5.99116    1.32625
       H     7.84104   -0.27582   -4.13463
       O     8.12646   -0.98275   -4.77325
      H1     8.56202   -1.65347   -4.24448
       H     4.36639    0.92555    0.08654
       O     3.75339    0.41511   -0.46228
      H1     3.56086   -0.41971   -0.03257
       H     6.21390   -7.73574   -4.11130
       O     5.39531   -8.11206   -3.87219
      H1     5.25122   -7.63435   -3.03739
       H     4.93472   -5.82507   -2.20861
       O     4.96653   -6.72458   -1.74325
      H1     5.79930   -6.75667   -1.25958
       H     7.58352   -5.77979   -4.95871
       O     7.82968   -6.61082   -4.54317
      H1     8.00292   -6.40957   -3.64378
       H     0.73653   -0.18504    2.24772
       O     0.94847   -0.76531    1.51599
      H1     0.14991   -0.77031    0.99191
       H     4.67240   -1.63374   -6.85406
       O     4.23148   -1.55685   -7.70261
      H1     3.50418   -0.93831   -7.59844
       H     9.59163    0.69696   -1.23067
       O     8.99828    0.55844   -0.47801
      H1     9.61703    0.63480    0.30155
       H     5.26293  -10.43112    0.45449
       O     4.93255  -10.21147   -0.43455
      H1     4.70337  -11.08539   -0.80388

