120
frame 0 | Written by MDAnalysis XYZWriter (release 2.4.3)
       H   -13.04494  -18.16725   -5.87108
       O   -13.61393  -17.33741   -5.74030
      H1   -13.21910  -17.16338   -4.89035
       H    -5.51068  -15.74288   -2.67844
       O    -4.84601  -16.30465   -3.03736
      H1    -4.12719  -15.58677   -3.01269
       H   -12.43099   -8.68346   -2.75631
       O   -12.45553   -9.52972   -3.19713
      H1   -11.52603   -9.81482   -3.10544
       H    -3.50770  -16.88985   -5.71209
       O    -3.24799  -15.96779   -5.75549
      H1    -2.91856  -15.77500   -4.90383
       H    -5.61197  -13.68909    0.82145
       O    -5.10053  -12.92127    0.59745
      H1    -4.68594  -12.72377    1.44798
       H    -7.15753  -13.13641    2.20934
       O    -7.77261  -13.83683    2.20255
      H1    -7.39569  -14.45000    2.88015
       H   -10.09474  -15.24581    0.20470
       O   -10.05273  -14.74474    1.05373
      H1    -9.06304  -14.58724    1.15216
       H    -8.52325  -11.70047   -2.81101
       O    -7.72796  -12.08563   -2.43922
      H1    -7.56650  -11.36286   -1.80252
       H    -2.57109  -14.15164   -2.25416
       O    -2.78411  -14.39739   -3.19076
      H1    -2.67058  -13.51400   -3.55000
       H   -11.14443  -13.68551   -2.73861
       O   -11.38967  -13.80439   -3.66772
      H1   -10.75253  -14.55751   -3.86885
       H    -6.81179  -13.64683   -1.74200
       O    -6.82235  -14.62833   -1.79969
      H1    -6.34175  -14.79204   -0.92821
       H    -4.57046  -18.10965   -1.54522
       O    -4.76533  -19.01286   -1.81991
      H1    -5.44283  -18.76181   -2.40919
       H    -4.90663  -15.98621    0.48833
       O    -5.78490  -15.57956    0.50638
      H1    -6.39676  -16.20313    0.87912
       H    -9.83626   -9.09971   -7.95752
       O   -10.00286   -9.92075   -7.51694
      H1    -9.43425  -10.54184   -7.90472
       H    -6.92869  -14.30832   -8.46093
       O    -7.90190  -14.26638   -8.75714
      H1    -8.12105  -13.28152   -8.59197
       H    -6.51183  -12.15843   -4.51785
       O    -5.97473  -11.41651   -4.88099
      H1    -6.22557  -10.69385   -4.30400
       H    -8.93448  -14.91926   -7.34036
       O    -9.68189  -15.11531   -6.75062
      H1    -9.81229  -14.26726   -6.26966
       H    -8.07017  -18.87595   -2.87146
       O    -7.14619  -18.66129   -3.21323
      H1    -7.39856  -18.22528   -4.03584
       H    -8.41040  -15.22208   -3.09106
       O    -9.05572  -15.43574   -3.80967
      H1    -8.44568  -15.44769   -4.58276
       H    -6.91651  -11.04734   -8.22146
       O    -7.66928  -11.58034   -7.96000
      H1    -7.66323  -11.46144   -7.00212
       H   -13.76311  -14.09179    0.04944
       O   -14.06303  -13.33853   -0.47546
      H1   -14.95513  -12.99698   -0.23840
       H    -8.84610   -9.79403   -2.06901
       O    -9.66605   -9.80067   -2.55102
      H1    -9.39259   -9.78906   -3.50108
       H   -10.36475  -12.52659   -5.07681
       O   -10.15637  -12.36682   -6.00323
      H1   -10.95152  -11.96139   -6.33179
       H    -9.08098  -18.86365   -0.15288
       O    -8.95717  -19.87535   -0.11586
      H1    -7.97634  -19.93566   -0.40834
       H    -8.71599  -17.80077   -9.25968
       O    -8.06910  -18.39664   -8.82079
      H1    -7.43792  -18.55079   -9.56252
       H   -10.55171  -13.73650   -0.09883
       O   -10.51322  -13.33941   -0.98749
      H1    -9.58105  -13.18587   -1.12998
       H    -3.75698  -12.27499   -6.27787
       O    -3.42794  -12.66548   -7.09997
      H1    -3.89429  -13.48784   -7.22126
       H   -15.00910  -14.71264   -3.37590
       O   -14.75866  -15.26752   -2.57635
      H1   -14.45868  -14.55608   -1.99443
       H    -7.44201   -8.92484   -0.84043
       O    -7.52398   -9.87946   -0.79817
      H1    -6.97098  -10.14944   -0.08046
       H   -12.62085  -17.62087    0.65711
       O   -11.89791  -17.33646    1.23165
      H1   -11.32207  -18.18874    1.27073
       H    -9.45059  -16.44019    1.15490
       O    -8.97355  -17.14440    0.63344
      H1    -8.17528  -17.31159    1.18485
       H    -4.16791  -18.72848   -4.98862
       O    -4.36162  -18.40321   -5.87624
      H1    -5.35087  -18.24500   -5.92969
       H   -13.99010  -18.16509   -3.13118
       O   -14.03662  -19.03188   -2.69023
      H1   -14.84628  -19.42751   -2.99333
       H    -7.47924  -18.00707   -7.18766
       O    -7.25958  -17.91981   -6.22340
      H1    -6.86784  -17.01900   -6.20199
       H    -4.62184  -15.81346   -8.45735
       O    -5.10217  -14.99744   -8.12234
      H1    -4.75120  -14.36267   -8.81969
       H   -13.95475  -16.45050   -7.22756
       O   -14.40177  -15.70976   -7.71725
      H1   -15.00147  -16.18301   -8.27912
       H   -10.90698  -15.11247   -8.34751
       O   -11.01606  -14.85510   -9.29162
      H1   -10.08916  -14.60039   -9.41413
       H    -5.44035  -15.42532   -6.02126
       O    -6.13215  -15.45511   -5.36310
      H1    -5.59704  -15.66606   -4.61403
       H   -12.57876  -15.70455   -3.37724
       O   -12.48369  -16.67982   -3.39830
      H1   -11.54854  -16.85352   -3.41321
       H    -9.95185  -18.99038   -4.16932
       O   -10.18317  -18.25930   -3.57225
      H1    -9.98891  -17.42345   -4.01943

