120
frame 0 | Written by MDAnalysis XYZWriter (release 2.4.3)
       H    11.11356   -7.88563  -17.49389
       O    11.86300   -8.41749  -17.75370
      H1    12.00264   -8.20494  -18.67965
       H     6.46134    0.74189  -19.92166
       O     5.57346    0.70059  -19.51941
      H1     5.83346    0.65697  -18.52625
       H     4.84127    0.55330  -13.39049
       O     3.86086    0.46858  -13.38848
      H1     3.70910    1.03860  -12.61879
       H     7.15954   -6.22707  -11.30529
       O     7.96707   -6.13016  -11.79999
      H1     7.69389   -5.57838  -12.52470
       H    10.21465   -2.65437  -13.87217
       O    10.01174   -1.79284  -13.46988
      H1     9.41774   -1.29764  -14.10014
       H    12.88967   -1.63959  -13.85281
       O    13.13300   -2.53661  -13.42306
      H1    12.58143   -3.13149  -13.93182
       H    10.54650   -2.72959  -11.64510
       O    10.17643   -2.76301  -10.74566
      H1     9.23437   -2.81629  -10.84543
       H     6.69271    2.09082  -13.85428
       O     6.47838    1.18885  -13.57599
      H1     6.92741    1.16944  -12.73271
       H     7.67206    0.36423  -14.84476
       O     8.46755   -0.19333  -15.06014
      H1     9.20770    0.40051  -14.93580
       H     3.72851   -2.72062  -18.62061
       O     2.78346   -2.46278  -18.72928
      H1     2.88629   -2.55319  -19.68815
       H     2.80318   -5.78868  -18.24982
       O     3.38502   -6.49109  -18.45917
      H1     3.39711   -6.55124  -19.40298
       H    13.02334   -1.33149  -17.44229
       O    12.53410   -2.15228  -17.17465
      H1    11.58375   -2.01845  -17.29709
       H     3.88415   -4.44979  -15.24735
       O     3.74137   -5.37114  -15.28146
      H1     2.78309   -5.43174  -15.19935
       H     9.32454   -9.26098  -14.01563
       O     8.96530   -8.58577  -14.58751
      H1     9.55510   -7.86742  -14.40340
       H     2.92341   -2.09034  -12.18819
       O     3.86042   -1.99492  -12.15919
      H1     3.92142   -1.08512  -12.50923
       H    11.23407   -4.72335  -15.07224
       O    10.48196   -4.50426  -14.46199
      H1    10.47845   -5.26299  -13.87183
       H     8.49756   -9.04255  -16.04187
       O     8.37653   -9.08317  -17.04678
      H1     7.42738   -9.12468  -17.18526
       H    12.95379   -3.82468  -15.84958
       O    12.84348   -4.73146  -15.50882
      H1    13.05288   -5.25233  -16.28262
       H     9.08802   -4.47468  -15.80715
       O     8.93152   -4.15552  -16.75229
      H1     7.93362   -4.35016  -16.74914
       H    12.93307   -2.83978  -20.12160
       O    12.48978   -3.63878  -19.65883
      H1    12.73349   -3.42967  -18.72502
       H     0.82593   -4.59082  -19.27988
       O     1.20379   -4.49738  -18.37594
      H1     1.63319   -3.62026  -18.49710
       H     6.13066   -8.30539  -13.19397
       O     6.84880   -8.93937  -13.08228
      H1     7.53175   -8.52604  -13.64707
       H     5.24465   -8.76618  -18.50728
       O     5.93612   -9.32275  -18.09527
      H1     5.51376   -9.69156  -17.24155
       H    10.84847  -10.39496  -17.48917
       O    10.12484  -11.05639  -17.26985
      H1     9.42228  -10.42510  -17.07440
       H     9.75066   -6.17199  -11.90093
       O    10.61156   -5.92836  -12.23786
      H1    11.27613   -6.30447  -11.65593
       H     4.58906   -2.46128  -13.55179
       O     4.99698   -2.70813  -14.38234
      H1     5.12940   -1.83134  -14.70999
       H     8.99088   -7.28266  -17.25358
       O     9.54759   -6.62967  -17.69549
      H1     9.17090   -5.78351  -17.37447
       H    11.29142    0.84178  -14.85969
       O    10.57304    1.50288  -14.97835
      H1    10.81199    2.25856  -14.37365
       H     7.94429   -4.62921  -10.64122
       O     7.47314   -3.99116  -10.14901
      H1     7.62707   -4.29701   -9.23928
       H     5.38103    2.75592  -16.91279
       O     5.93690    1.97016  -16.88653
      H1     5.57613    1.44625  -16.16709
       H    12.50004    0.30524  -13.65126
       O    12.42996   -0.26279  -14.46962
      H1    13.19992    0.01481  -15.04024
       H     5.46724   -2.07632  -19.05607
       O     5.34818   -2.68353  -18.27226
      H1     5.83994   -3.46568  -18.46657
       H     6.72465   -4.00075  -14.14402
       O     7.50452   -4.45959  -13.80759
      H1     7.96667   -3.72486  -13.43413
       H     5.65241   -5.87816  -16.64904
       O     6.42462   -5.78994  -17.26325
      H1     5.96618   -5.61815  -18.09465
       H    12.27475   -9.74021  -14.52631
       O    11.66958   -9.14965  -14.09717
      H1    12.30495   -8.53138  -13.69241
       H     3.82935   -6.56860  -14.16201
       O     3.97031   -7.33662  -13.53440
      H1     3.52692   -8.07158  -14.02313
       H     4.25833   -0.32005  -16.60925
       O     5.03262   -0.61869  -16.20509
      H1     5.24362   -1.46313  -16.69283
       H     2.56966   -9.53909  -17.05890
       O     2.02350   -9.02363  -17.65083
      H1     2.47113   -8.15352  -17.52678
       H    13.16341   -5.75405  -18.68809
       O    13.38284   -6.04566  -17.74468
      H1    13.15968   -6.98937  -17.78236
       H     9.50382   -0.91422  -16.83279
       O     9.67914   -1.44511  -17.62325
      H1     9.33484   -2.22445  -17.26908

