120
frame 0 | Written by MDAnalysis XYZWriter (release 2.4.3)
       H    -4.07670    7.92914   10.38081
       O    -3.27594    8.03196    9.81813
      H1    -3.12199    9.01161    9.81924
       H    -2.66187   14.63656    7.77484
       O    -2.07028   14.64938    6.97150
      H1    -1.16419   14.84301    7.38076
       H     0.21800   10.53150   14.08619
       O    -0.03594   11.12445   13.32462
      H1     0.64367   11.01650   12.68795
       H    -2.94060   10.62744   12.52779
       O    -2.26842    9.86946   12.38968
      H1    -1.46243   10.38308   12.61634
       H    -4.33504    8.86820    7.00863
       O    -5.31376    8.99034    7.07759
      H1    -5.61888    8.11260    7.29665
       H    -0.72569   11.07226    5.05557
       O    -0.95826   10.22485    4.60140
      H1    -0.91783   10.48801    3.69832
       H    -0.12356   12.05045    8.30511
       O    -0.70556   11.93038    9.10796
      H1     0.04532   11.63632    9.59393
       H    -5.32870    5.79560    8.13517
       O    -4.62678    6.21747    7.61476
      H1    -4.11777    6.74666    8.19578
       H    -3.22773   13.74017    5.77063
       O    -3.80678   13.10763    5.32233
      H1    -4.23443   12.65249    6.03019
       H    -5.39063   16.48463    6.45298
       O    -4.85088   15.71034    6.60709
      H1    -5.15222   15.11628    5.79817
       H    -9.55972   12.37988    9.16662
       O    -9.13968   11.55244    8.87861
      H1    -9.88151   10.98553    8.93497
       H    -8.37387   12.14252   12.26978
       O    -9.01930   12.35682   12.95511
      H1    -9.57742   11.48803   12.86640
       H    -6.75362   14.77938    9.08745
       O    -6.60683   14.24358    8.29012
      H1    -6.01849   14.81550    7.81801
       H    -8.93087   15.51335    7.18916
       O    -8.33709   15.24243    6.43977
      H1    -7.61598   14.71018    6.87199
       H    -0.02868   12.92812    5.85303
       O    -0.63054   12.19764    6.23050
      H1    -1.35098   12.80634    6.45542
       H    -6.00615    8.71120    5.08299
       O    -6.28910    8.50788    4.15058
      H1    -6.39812    9.39380    3.72664
       H    -1.59266    8.22093   10.27321
       O    -0.68249    7.92179   10.52056
      H1    -0.42787    7.46881    9.68339
       H    -7.99135   11.34181   10.17258
       O    -7.42065   11.38574   10.97395
      H1    -6.59982   11.88223   10.68639
       H     2.83399   12.35863    7.78476
       O     2.01896   11.85877    7.90721
      H1     1.90678   11.59130    6.92761
       H    -5.42827   11.11336    7.70186
       O    -5.01710   11.98349    7.71352
      H1    -5.69326   12.60968    7.88926
       H    -5.08541    9.82696   11.77536
       O    -5.02866    8.88343   11.81342
      H1    -4.13505    8.71412   12.08551
       H    -3.60893   12.45747   11.53490
       O    -4.13620   11.86920   12.08113
      H1    -4.18597   12.21958   13.01425
       H    -1.88718   13.05478    9.92378
       O    -2.49700   13.44510   10.58011
      H1    -2.48326   14.37994   10.27042
       H    -2.86971   16.74310    9.18819
       O    -2.50846   16.27889    9.97873
      H1    -1.58685   16.49722    9.87230
       H    -6.90082   12.92281    4.85209
       O    -6.96720   11.99864    4.52540
      H1    -7.76218   11.56204    5.06936
       H    -7.49864    5.96526    6.72600
       O    -7.56962    6.85884    7.23765
      H1    -8.15195    6.53172    8.02539
       H    -5.15028   14.03749    4.47447
       O    -5.98716   14.49615    4.53440
      H1    -5.98077   15.04020    3.73276
       H     1.73348   13.18648   10.43245
       O     1.73446   14.13152   10.42617
      H1     1.32925   14.37924    9.53692
       H    -1.95191   13.90994   12.81978
       O    -1.68588   14.77316   13.16319
      H1    -2.54623   15.07564   13.49098
       H     0.46784    7.51666    7.24084
       O    -0.24582    6.88295    7.19363
      H1    -1.00147    7.44466    6.93014
       H     0.29982   16.09631    8.50045
       O     0.42935   15.19024    8.17858
      H1     1.17475   15.35405    7.52003
       H    -9.00547   12.02308    7.04195
       O    -9.27453   12.17592    6.12831
      H1    -9.76498   11.37299    6.02545
       H    -2.35301   11.25207    9.14397
       O    -3.05279   10.62016    9.01248
      H1    -3.73893   11.18398    8.69530
       H    -2.86276   16.76897    6.56498
       O    -2.33901   17.61695    6.72858
      H1    -2.58072   18.12894    5.96264
       H    -2.27997    5.09027   10.88980
       O    -1.46685    5.34885   10.46069
      H1    -1.43624    6.32860   10.59150
       H    -6.36043    7.67597   11.84686
       O    -6.53244    6.73410   12.03789
      H1    -7.36589    6.59803   11.57244
       H    -2.32473    9.43716    7.49810
       O    -2.26588    8.81224    6.81199
      H1    -1.66781    9.29743    6.14571
       H    -2.36484    9.54762   14.34783
       O    -2.22803    9.58828   15.32047
      H1    -1.31402    9.73759   15.37554
       H    -4.01659   11.04998    4.13611
       O    -3.86635   10.31613    3.54913
      H1    -2.97012    9.98930    3.72760
       H     2.47854   10.25051   10.29713
       O     1.99684   11.08568   10.45924
      H1     2.19362   11.43457    9.59874

