120
frame 0 | Written by MDAnalysis XYZWriter (release 2.4.3)
       H    15.67551   -2.15429  -15.07427
       O    16.02542   -1.78536  -14.30695
      H1    16.95650   -1.76890  -14.41359
       H    13.76522   -0.67897  -17.06172
       O    13.66619    0.20783  -16.70774
      H1    14.58165    0.50820  -16.64150
       H    14.36351    1.84676   -9.77855
       O    14.09597    1.65666   -8.85351
      H1    13.99052    0.70407   -8.98749
       H    10.96143   -1.65812  -17.70223
       O    11.63546   -2.41285  -17.75681
      H1    11.21399   -3.28168  -18.02169
       H    16.32701   -2.71291  -12.87710
       O    16.26267   -3.42093  -12.23736
      H1    15.73080   -4.10710  -12.65310
       H    14.42175   -6.58303  -12.73779
       O    14.65644   -5.83719  -13.25980
      H1    13.91407   -5.32582  -13.46189
       H    11.84093   -3.80757  -14.48888
       O    12.58697   -4.39888  -14.23327
      H1    12.21281   -5.29520  -14.40163
       H    18.86510   -0.56446  -14.45675
       O    18.76546   -1.30259  -13.82248
      H1    19.59417   -1.85862  -13.84110
       H    11.25138   -2.63836  -11.48894
       O    11.37005   -3.58100  -11.77080
      H1    12.02213   -3.70408  -12.41117
       H    15.83989   -2.37958  -17.31148
       O    15.03704   -2.31987  -16.73525
      H1    14.61131   -3.18436  -16.86030
       H    12.62557   -0.07910  -13.75545
       O    12.02511    0.36525  -14.35828
      H1    12.59106    0.45924  -15.14985
       H    10.23776   -2.21432  -13.59312
       O    10.83523   -2.05771  -14.30966
      H1    11.12003   -1.10352  -14.34706
       H    14.23745   -0.59376  -10.78689
       O    13.80190   -0.97113   -9.97859
      H1    12.81664   -1.22619  -10.11840
       H    16.89598   -2.97516  -19.21218
       O    17.26407   -2.29604  -18.74995
      H1    18.16357   -2.51052  -18.51572
       H    19.68105   -7.48063  -12.52320
       O    19.88889   -6.78213  -13.18490
      H1    19.39778   -6.00193  -12.88052
       H    15.56395   -6.51611   -8.78340
       O    15.38361   -5.77558   -8.20674
      H1    15.19569   -5.05755   -8.80215
       H    19.58613   -4.11589  -11.75694
       O    18.82893   -4.61533  -12.05184
      H1    18.11716   -4.00286  -11.96819
       H    17.02652    3.46945  -11.39905
       O    16.20857    3.75527  -10.89454
      H1    16.06544    4.70153  -11.07663
       H    17.10634   -5.03697   -7.54395
       O    18.07142   -4.81724   -7.64222
      H1    18.58490   -5.14107   -6.86195
       H    17.12464   -1.62536   -8.41173
       O    16.73664   -1.46838   -9.30461
      H1    16.18365   -2.24462   -9.50601
       H    14.81376    2.74567  -11.75617
       O    14.07547    2.08715  -11.70660
      H1    13.28080    2.57321  -11.98977
       H    10.77432   -1.12396   -9.38474
       O    11.09272   -1.29789  -10.29000
      H1    10.51131   -0.62268  -10.73864
       H    14.61546    3.47778  -14.01319
       O    15.46826    3.17979  -14.36119
      H1    15.28276    2.53721  -15.04734
       H    14.56889   -3.27694   -5.63699
       O    14.68094   -2.77259   -6.42001
      H1    13.76424   -2.53464   -6.61119
       H    17.01189   -7.24925   -9.61022
       O    16.20007   -7.72506   -9.86602
      H1    16.48906   -8.62047  -10.03125
       H    18.32385   -5.52006   -8.95069
       O    18.52454   -6.23552   -9.72829
      H1    18.56656   -5.61003  -10.49793
       H    14.47422   -7.43519  -10.88812
       O    13.57105   -7.34827  -11.30328
      H1    12.91982   -7.01504  -10.58191
       H    13.99363   -8.78340  -16.50925
       O    14.78691   -8.68858  -16.09410
      H1    15.16337   -7.79446  -16.23387
       H    16.39558   -6.03404  -15.39685
       O    16.41814   -6.42142  -16.28530
      H1    17.34151   -6.74716  -16.23053
       H    15.83884    0.01624   -7.13534
       O    15.96808    0.58276   -6.36022
      H1    15.39180    0.14884   -5.65930
       H    18.51024    0.06611  -11.68210
       O    18.84957    0.07227  -10.77550
      H1    18.12748   -0.40119  -10.29430
       H    14.89447   -0.61382  -13.41683
       O    14.20970   -0.35278  -12.77267
      H1    14.40033    0.58002  -12.49489
       H    11.62075    2.14258  -13.42894
       O    11.80225    2.82071  -12.76303
      H1    11.15202    3.49653  -12.97111
       H    13.12173   -3.83781  -17.26965
       O    13.70470   -4.55109  -16.94898
      H1    13.57312   -4.58166  -15.99667
       H    10.22449   -4.71274  -11.14474
       O     9.58678   -5.25117  -10.71921
      H1     8.88788   -4.63820  -10.37113
       H    18.22721   -2.34944   -6.36706
       O    18.71290   -2.25242   -7.18890
      H1    18.56130   -3.18827   -7.57822
       H    15.21414   -3.42748  -10.74813
       O    15.00713   -3.29946   -9.80370
      H1    14.41390   -2.53518   -9.86406
       H    15.42247    2.77912  -17.72768
       O    15.91162    1.91659  -17.74091
      H1    15.63214    1.35658  -18.45002
       H    19.43892   -6.54269  -16.07567
       O    19.03502   -7.39653  -16.23964
      H1    19.45269   -7.85514  -17.02123
       H    17.47846    3.16075  -13.36452
       O    18.26066    3.09086  -12.73727
      H1    18.98711    3.36080  -13.27362

