120
frame 3 | Written by MDAnalysis XYZWriter (release 2.4.3)
       H     8.76306    8.58951  -12.30413
       O     8.92714    9.27467  -11.62289
      H1     9.04089    8.82829  -10.70612
       H     9.56730   14.60248  -13.43495
       O     9.21912   15.18269  -14.11034
      H1     8.82674   14.58014  -14.78384
       H     7.92983   15.36108  -12.58202
       O     7.07872   15.14749  -12.15115
      H1     6.89929   15.89379  -11.54190
       H     1.42586   11.01484  -12.96121
       O     2.19152   11.10869  -12.35241
      H1     1.86147   11.69596  -11.63277
       H     1.82385   15.04901  -15.33094
       O     1.74347   15.98301  -15.71407
      H1     1.24796   15.83538  -16.54816
       H     4.76390   14.11365  -17.43632
       O     5.04523   13.82073  -16.58697
      H1     4.38872   13.16264  -16.29348
       H     4.22291    4.95261  -19.06598
       O     3.30730    4.68392  -18.65510
      H1     2.98126    5.51925  -18.31767
       H    10.57364   13.49965  -11.26917
       O    10.26027   13.64347  -12.14970
      H1    10.10087   12.76952  -12.56083
       H    -0.36087   10.38207  -16.23730
       O    -0.71445   11.14278  -15.68227
      H1    -1.17922   11.64719  -16.34561
       H     3.92931    8.71946  -11.38489
       O     4.59328    8.25010  -10.89049
      H1     5.28616    8.95991  -10.87026
       H     8.44555    7.95135  -17.30950
       O     8.48461    8.78490  -16.90541
      H1     9.06069    9.33514  -17.41286
       H     5.35606   10.03083  -15.25583
       O     4.82679    9.55700  -15.86947
      H1     5.12553    9.87294  -16.74475
       H     7.92359   13.09206  -15.94745
       O     7.77985   13.98885  -16.20667
      H1     6.79684   14.05650  -16.27884
       H     9.63266    5.02104  -13.02919
       O     9.32018    5.69814  -12.50271
      H1     9.21936    6.39063  -13.13945
       H     3.09800   13.32955  -18.63845
       O     3.48755   14.14048  -18.93966
      H1     2.92234   14.83279  -18.53720
       H     3.51883    7.93660  -18.51939
       O     2.74043    7.50352  -18.07424
      H1     2.39001    8.17983  -17.53058
       H     4.04010    4.80649  -12.79140
       O     4.62826    4.44728  -12.12680
      H1     4.12541    3.68809  -11.81455
       H     5.80685   13.27142  -18.72295
       O     6.46170   13.00047  -19.39113
      H1     7.33596   13.31439  -19.14226
       H     9.54640   14.76174  -19.08269
       O     9.30858   14.01773  -18.54916
      H1     8.77675   14.36948  -17.81772
       H     0.47713    7.30325  -13.44272
       O     0.38902    6.32173  -13.53966
      H1     1.28698    6.05479  -13.91550
       H     8.44017    6.43574  -19.24721
       O     8.82673    6.09319  -18.40822
      H1     9.75943    6.00791  -18.56186
       H     6.49747   13.92257  -11.10317
       O     6.05776   13.17297  -10.65930
      H1     5.07976   13.35534  -10.68498
       H     9.07684   10.29720  -19.22604
       O     9.94453   10.26388  -18.71819
      H1    10.28933   11.16519  -18.58561
       H     0.03278    7.53790  -16.61676
       O     0.53650    8.37683  -16.54410
      H1     1.09340    8.29328  -15.75876
       H     3.06862    8.87055  -14.59365
       O     2.19794    8.70062  -14.31246
      H1     2.09678    8.70053  -13.37506
       H     3.31008   11.33727  -15.86135
       O     3.38470   12.15145  -15.31245
      H1     3.87937   11.81711  -14.52281
       H     8.28923    5.14329  -17.09630
       O     7.86555    4.78465  -16.31167
      H1     7.51526    5.59406  -15.92410
       H    10.11340   11.24116  -14.05779
       O     9.33828   11.49047  -13.56001
      H1     9.32189   10.89917  -12.83676
       H     8.85797    8.20674  -15.12154
       O     9.40886    7.96817  -14.36327
      H1    10.05621    8.70409  -14.26296
       H     7.28551   10.30253  -11.21441
       O     6.34978   10.51207  -11.10878
      H1     6.32486   11.42288  -10.84273
       H     6.38215   11.52712  -18.21532
       O     6.25815   10.57933  -18.11825
      H1     6.76122   10.19323  -18.84062
       H     4.19946   14.81022  -11.92690
       O     3.55724   14.38479  -11.34910
      H1     2.68926   14.74306  -11.65839
       H     1.68896   12.78862  -14.56458
       O     0.87247   13.23836  -14.37924
      H1     0.25588   12.63978  -14.82947
       H     6.08299   11.31715  -13.96136
       O     5.29899   11.00790  -13.59966
      H1     5.53554   10.65981  -12.74113
       H     5.26598    7.63725  -15.65939
       O     5.41900    6.77165  -15.28254
      H1     5.82112    7.03088  -14.44304
       H     6.88663    6.50820  -12.24639
       O     6.31697    7.18938  -12.67145
      H1     5.71337    7.55994  -11.97268
       H     0.65033   12.51652  -17.80684
       O     1.51771   12.09589  -18.01863
      H1     1.32830   11.36055  -18.62825
       H     1.91541    9.61887  -11.80173
       O     1.68295    8.65936  -11.58301
      H1     0.93975    8.73423  -11.00741
       H     8.00195   11.25603  -14.80100
       O     7.30347   11.31865  -15.42928
      H1     7.30505   10.53536  -16.01230
       H     3.01870    4.59584  -14.51102
       O     3.05175    5.50182  -14.16662
      H1     3.66469    5.96118  -14.73786

