120
frame 0 | Written by MDAnalysis XYZWriter (release 2.4.3)
       H    14.61272   -9.64140  -12.84084
       O    14.58104   -9.28618  -13.71301
      H1    15.11752   -8.48547  -13.68149
       H    11.11356   -7.88563  -17.49389
       O    11.86300   -8.41749  -17.75370
      H1    12.00264   -8.20494  -18.67965
       H     7.15954   -6.22707  -11.30529
       O     7.96707   -6.13016  -11.79999
      H1     7.69389   -5.57838  -12.52470
       H    12.48409  -13.42821  -14.81473
       O    12.98459  -14.14392  -15.22496
      H1    13.63531  -14.24803  -14.44711
       H    11.83254   -9.19490   -9.41426
       O    12.29097   -9.78748  -10.05299
      H1    11.66572  -10.52179  -10.09701
       H    13.16996   -9.35781  -16.46398
       O    13.38616  -10.28961  -16.31500
      H1    13.99509  -10.13936  -15.56321
       H     9.32454   -9.26098  -14.01563
       O     8.96530   -8.58577  -14.58751
      H1     9.55510   -7.86742  -14.40340
       H     5.49687  -14.58587  -11.51646
       O     6.45543  -14.70346  -11.79378
      H1     6.90814  -13.87483  -11.70364
       H    11.23407   -4.72335  -15.07224
       O    10.48196   -4.50426  -14.46199
      H1    10.47845   -5.26299  -13.87183
       H     8.49756   -9.04255  -16.04187
       O     8.37653   -9.08317  -17.04678
      H1     7.42738   -9.12468  -17.18526
       H    12.95379   -3.82468  -15.84958
       O    12.84348   -4.73146  -15.50882
      H1    13.05288   -5.25233  -16.28262
       H     9.08802   -4.47468  -15.80715
       O     8.93152   -4.15552  -16.75229
      H1     7.93362   -4.35016  -16.74914
       H    10.08294   -7.75808   -7.92953
       O    10.36867   -8.05614   -8.79778
      H1    10.34530   -7.19530   -9.26270
       H    10.27707   -4.42177   -8.56506
       O    10.72849   -4.97366   -9.26246
      H1    10.60571   -4.30125   -9.98609
       H     9.25447   -9.26787  -10.61466
       O     8.34025   -9.46060  -10.69083
      H1     7.98647   -8.85377  -11.36718
       H     5.30364  -12.44401  -18.86245
       O     4.86411  -11.65032  -19.06549
      H1     5.38987  -10.95697  -18.56971
       H     6.13066   -8.30539  -13.19397
       O     6.84880   -8.93937  -13.08228
      H1     7.53175   -8.52604  -13.64707
       H    10.48365  -12.07939  -15.81441
       O    10.57968  -12.64389  -14.99772
      H1     9.89766  -12.22132  -14.40176
       H     5.24465   -8.76618  -18.50728
       O     5.93612   -9.32275  -18.09527
      H1     5.51376   -9.69156  -17.24155
       H    14.59690   -5.74954  -14.96754
       O    15.54416   -5.69729  -14.85161
      H1    15.88031   -6.33125  -15.51230
       H    10.84847  -10.39496  -17.48917
       O    10.12484  -11.05639  -17.26985
      H1     9.42228  -10.42510  -17.07440
       H     9.75066   -6.17199  -11.90093
       O    10.61156   -5.92836  -12.23786
      H1    11.27613   -6.30447  -11.65593
       H     9.39797  -14.13462  -15.97206
       O     8.75682  -14.57899  -16.53225
      H1     8.65072  -15.42967  -16.13789
       H     8.99088   -7.28266  -17.25358
       O     9.54759   -6.62967  -17.69549
      H1     9.17090   -5.78351  -17.37447
       H     6.54415  -13.36080  -15.56601
       O     6.05158  -12.91492  -14.81644
      H1     6.82269  -12.49031  -14.41711
       H     7.94429   -4.62921  -10.64122
       O     7.47314   -3.99116  -10.14901
      H1     7.62707   -4.29701   -9.23928
       H     6.72465   -4.00075  -14.14402
       O     7.50452   -4.45959  -13.80759
      H1     7.96667   -3.72486  -13.43413
       H     7.81116  -10.70773  -13.40219
       O     8.49613  -11.39494  -13.45429
      H1     8.72923  -11.55575  -12.54742
       H     5.65241   -5.87816  -16.64904
       O     6.42462   -5.78994  -17.26325
      H1     5.96618   -5.61815  -18.09465
       H    12.27475   -9.74021  -14.52631
       O    11.66958   -9.14965  -14.09717
      H1    12.30495   -8.53138  -13.69241
       H     5.25986   -6.79410   -9.70004
       O     5.50246   -7.05696  -10.63910
      H1     4.63877   -7.48003  -10.85263
       H     6.55770  -12.72266   -9.38969
       O     5.97282  -12.78241   -8.64544
      H1     6.35060  -13.53403   -8.26885
       H     3.82935   -6.56860  -14.16201
       O     3.97031   -7.33662  -13.53440
      H1     3.52692   -8.07158  -14.02313
       H     7.15073   -9.97340   -8.83143
       O     6.90475   -9.95062   -7.94672
      H1     5.96427  -10.00844   -8.16151
       H    13.63528   -7.19769  -11.12139
       O    12.84225   -7.44091  -11.58394
      H1    12.64748   -8.29258  -11.24217
       H    13.16341   -5.75405  -18.68809
       O    13.38284   -6.04566  -17.74468
      H1    13.15968   -6.98937  -17.78236
       H    11.04753  -12.86042  -10.13588
       O    10.81768  -12.49751  -10.99349
      H1    11.40309  -12.93788  -11.62512
       H     4.54013  -11.25892  -15.90470
       O     4.51744  -10.32194  -15.86298
      H1     3.67148  -10.24430  -15.41155
       H     8.75263  -12.61674  -10.45914
       O     7.86988  -12.27375  -10.72347
      H1     7.97132  -11.32354  -10.63337
       H     4.19572  -11.35255  -11.54204
       O     4.72550  -10.57143  -11.48806
      H1     5.53458  -10.99987  -11.78346

