120
frame 1 | Written by MDAnalysis XYZWriter (release 2.4.3)
       H     3.02573  -11.36672   17.16679
       O     3.25276  -10.40344   17.42505
      H1     2.57027  -10.23115   18.06114
       H    10.10322  -14.41347   15.52734
       O     9.56161  -15.02012   16.12482
      H1     9.14327  -14.33563   16.73490
       H     4.00923  -11.14532   10.69982
       O     3.23629  -10.68937   11.11292
      H1     2.91646  -11.19543   11.84868
       H     8.76710   -8.85332    8.64585
       O     8.74810   -8.03911    9.21568
      H1     8.65970   -8.32082   10.13399
       H     6.70186   -8.90469   18.47850
       O     5.74820   -8.79629   18.45633
      H1     5.44793   -9.42390   17.80536
       H     5.62839   -4.38006   18.79814
       O     4.82384   -4.69047   18.35074
      H1     5.16638   -4.30978   17.49003
       H     1.13062   -6.47126   17.39149
       O     2.02060   -6.84033   17.27074
      H1     1.90598   -7.52154   16.52294
       H     5.64559  -11.54938   11.78685
       O     6.01758  -11.71875   10.91442
      H1     5.54071  -12.44978   10.59050
       H     5.59645   -7.03607    9.48513
       O     4.77451   -7.32062    9.86740
      H1     4.59040   -6.55599   10.45575
       H     5.88047   -6.38343   16.88618
       O     6.41580   -6.75944   16.13724
      H1     6.15239   -7.72370   16.13693
       H     7.81695   -5.95304   16.98599
       O     8.46120   -5.83685   17.76146
      H1     8.45897   -6.72273   18.13802
       H     9.29237   -9.04999   18.36817
       O     8.45307   -8.76675   18.68416
      H1     8.61288   -9.00610   19.62343
       H     5.73812   -7.60227   11.46358
       O     6.05326   -7.72677   12.38428
      H1     5.36251   -8.33454   12.75563
       H    10.05343  -13.19809   13.92873
       O    10.87613  -13.66837   14.17849
      H1    10.85893  -14.41438   13.53435
       H     8.03498  -11.52961   14.29035
       O     8.10661  -12.42316   14.00161
      H1     7.54327  -12.86289   14.67092
       H     2.28804  -13.16855   18.01382
       O     2.35297  -12.89489   17.07300
      H1     1.44095  -12.75434   16.75574
       H     1.64840  -11.52818   13.23779
       O     2.44632  -11.67169   13.75433
      H1     2.27224  -12.48757   14.20909
       H     0.53742   -6.99498   12.64478
       O     1.10668   -6.99474   11.83978
      H1     0.87621   -7.86562   11.49190
       H     2.51126   -9.31948   16.16874
       O     1.85654   -8.96747   15.46432
      H1     2.41479   -9.09102   14.67925
       H     4.73042   -9.11712   14.96544
       O     5.56485   -9.48170   15.19426
      H1     5.33425   -9.95521   15.99402
       H     3.51873   -7.76656   13.52723
       O     3.64228   -8.73799   13.35875
      H1     3.18240   -8.89837   12.52375
       H     1.35330   -9.43523   19.22635
       O     0.92599   -9.20545   18.42789
      H1     1.55468   -8.50382   18.16193
       H    11.04242   -7.35450   13.62091
       O    11.03120   -8.28106   13.99847
      H1    10.09393   -8.30366   14.39130
       H    -0.30844  -10.04308   11.95423
       O     0.14024  -10.80172   12.39320
      H1    -0.40353  -11.54631   12.43487
       H     1.41027   -5.89762   14.44060
       O     0.45400   -6.09578   14.41267
      H1     0.20735   -5.16375   14.41960
       H     8.27828  -12.08549   12.38196
       O     8.76499  -11.88813   11.57316
      H1     8.13045  -12.07534   10.87600
       H     6.41331   -5.53995   14.50077
       O     6.43973   -5.10691   13.63087
      H1     6.44329   -5.89844   13.03133
       H     2.89938   -5.83447   16.05417
       O     3.13030   -5.29324   15.25003
      H1     3.61100   -4.58961   15.70406
       H     5.33533  -11.72417   17.94536
       O     6.05603  -11.69263   17.28543
      H1     6.80047  -12.09739   17.75079
       H    -1.26926  -11.00472   15.00395
       O    -0.74038  -10.36646   15.51201
      H1     0.09110  -10.31756   14.94841
       H     9.86749   -9.23336   12.52660
       O     9.15679   -9.23104   11.88647
      H1     9.02371  -10.19658   11.72609
       H     4.56305  -14.82950   15.84572
       O     3.77765  -15.21455   16.27738
      H1     3.34475  -14.42529   16.67813
       H    11.73055   -8.91475   18.18271
       O    10.95251   -9.39834   17.79701
      H1    11.16262  -10.33869   17.91179
       H     7.18810   -9.23617   14.48327
       O     8.08875   -9.52544   14.38898
      H1     8.33135   -9.43001   13.38623
       H     8.53340  -13.93249   18.76185
       O     8.47976  -13.38202   18.02991
      H1     9.21396  -12.69459   18.23284
       H     4.13690  -11.49293   13.73295
       O     5.06920  -11.56385   13.46264
      H1     5.43834  -10.76484   13.93535
       H     4.67535   -2.72646   15.83249
       O     5.31051   -3.43828   16.11798
      H1     6.04142   -2.98506   15.69240
       H     5.88764  -12.93678   16.15019
       O     6.01909  -13.49529   15.37982
      H1     5.71122  -12.86357   14.66145
       H     3.53483   -4.76864   11.51137
       O     4.49193   -4.86291   11.64114
      H1     4.56282   -4.54461   12.58558
       H     6.31109  -15.59592   14.67917
       O     6.49062  -16.35692   14.11087
      H1     7.34928  -16.59738   14.39909

