120
frame 0 | Written by MDAnalysis XYZWriter (release 2.4.3)
       H    -4.87830  -10.91994   18.90464
       O    -5.87702  -11.03992   18.64001
      H1    -6.03868  -11.97973   18.94583
       H   -16.19943  -10.46046   12.56190
       O   -15.55001  -10.32209   13.25686
      H1   -15.24212   -9.43037   13.03277
       H    -7.79624  -12.40538   14.71847
       O    -7.26649  -11.62553   14.99078
      H1    -7.05777  -11.33984   14.08436
       H    -6.55515  -13.19095   11.34550
       O    -6.87714  -13.84065   12.01299
      H1    -6.66656  -14.70017   11.68871
       H   -12.18359  -16.97762   17.21455
       O   -12.72221  -17.42230   17.93780
      H1   -13.35459  -16.72513   18.20162
       H   -14.08913  -13.03369   16.47568
       O   -15.04150  -12.73696   16.29476
      H1   -15.19216  -13.03852   15.37067
       H    -5.64803  -13.66187   13.75731
       O    -4.99830  -14.08981   14.34943
      H1    -5.00525  -13.48042   15.16841
       H   -10.69915   -6.34197   15.35252
       O   -10.65128   -5.53619   15.92994
      H1   -11.48072   -5.67821   16.44828
       H   -15.08451  -14.98035   18.73653
       O   -15.17099  -15.88061   18.33459
      H1   -15.77270  -15.69361   17.65118
       H    -7.90620   -8.27256   12.92091
       O    -7.99210   -7.66255   13.66165
      H1    -8.36766   -8.23041   14.30417
       H    -7.50942   -9.57969   11.25079
       O    -7.31559   -9.88623   12.16542
      H1    -6.34527   -9.74682   12.18540
       H    -3.14354   -8.74479   15.56242
       O    -4.04667   -8.98594   15.35342
      H1    -4.47619   -8.13307   15.23215
       H   -17.80114  -11.83864   15.99146
       O   -17.80558  -11.46781   15.11589
      H1   -16.84243  -11.39468   14.97688
       H    -5.58016  -11.77288   15.86921
       O    -4.76779  -12.18692   16.17173
      H1    -4.91729  -11.99885   17.12628
       H    -4.40563   -7.68083   19.28943
       O    -5.26723   -7.97013   19.08900
      H1    -5.79114   -7.18616   19.07720
       H    -7.08786   -7.26986   16.57855
       O    -7.72328   -6.53300   16.66825
      H1    -8.13033   -6.50418   15.78241
       H    -6.20934   -8.88742   17.42583
       O    -6.81548   -9.00751   16.63576
      H1    -7.30067   -9.83052   16.82306
       H   -11.61211  -13.11194   12.54329
       O   -11.32423  -13.34477   11.64429
      H1   -11.93131  -14.02341   11.41505
       H    -5.58401  -14.69816   19.33508
       O    -5.02355  -13.92354   19.51257
      H1    -4.13715  -14.17198   19.09292
       H    -8.78586   -7.76043   17.24656
       O    -9.43253   -8.34908   17.65631
      H1    -8.79933   -8.99784   18.09702
       H   -14.10002   -5.84302   17.51431
       O   -13.13339   -5.84389   17.45181
      H1   -12.89739   -6.65126   17.95555
       H   -14.03140   -7.65355   12.24636
       O   -13.86300   -7.73700   13.19152
      H1   -12.87104   -7.87025   13.18463
       H   -14.25409   -8.17300   15.26650
       O   -13.76067   -8.81749   15.72267
      H1   -13.66457   -9.57369   15.09005
       H   -13.03794   -8.75064   17.54286
       O   -12.57022   -8.39304   18.33332
      H1   -11.66926   -8.61225   17.95885
       H    -8.35323  -16.00112   16.37412
       O    -8.89710  -15.30850   16.81048
      H1    -8.78107  -14.56746   16.20861
       H    -9.42914  -10.64032   15.22490
       O    -9.73221   -9.72796   15.25376
      H1    -9.64480   -9.47505   16.19348
       H   -11.90728  -14.37838   15.21859
       O   -11.70081  -14.14964   14.32120
      H1   -12.58576  -13.83933   14.00349
       H   -12.08939  -12.67618   17.17082
       O   -12.59271  -13.53197   17.16993
      H1   -12.63712  -13.76548   18.10645
       H    -9.11412  -13.64915   19.56894
       O    -8.49543  -13.04028   19.17706
      H1    -8.13968  -13.56317   18.45639
       H   -10.91847   -8.44566   14.57129
       O   -11.48773   -7.72172   14.40275
      H1   -12.15347   -7.89398   15.06705
       H   -14.08892  -11.24082   13.77795
       O   -13.39150  -11.43355   14.41984
      H1   -13.84310  -11.71526   15.22452
       H   -14.21617  -17.87612   17.25450
       O   -15.08937  -18.32204   17.18199
      H1   -14.79384  -19.16004   16.68035
       H   -10.28305  -16.04462   16.24679
       O   -11.08875  -16.59611   16.03278
      H1   -10.67600  -17.23898   15.43270
       H   -14.79159  -15.39949   13.25245
       O   -14.77691  -14.42072   13.31579
      H1   -15.63301  -14.08047   13.00593
       H    -9.84228  -13.68401   14.26025
       O    -8.85777  -13.68743   14.38042
      H1    -8.55459  -13.77118   13.46183
       H    -9.76543  -14.13866   11.29085
       O    -9.13950  -14.90259   11.29596
      H1    -8.36160  -14.38478   10.96530
       H    -8.26209  -18.43617   16.18912
       O    -7.71126  -17.66769   16.28091
      H1    -6.91463  -18.03238   15.90148
       H   -10.35549  -12.08298   17.93575
       O   -10.83510  -11.44210   17.49613
      H1   -11.41899  -11.20734   18.20399
       H    -7.38991  -16.22089   18.27000
       O    -6.47953  -16.11550   18.50641
      H1    -6.46836  -16.65703   19.35333
       H    -9.06574   -3.89784   19.20235
       O    -8.85629   -4.75939   18.92314
      H1    -9.51478   -4.93881   18.24938

