120
frame 1 | Written by MDAnalysis XYZWriter (release 2.4.3)
       H     6.47399   13.08947   15.16967
       O     6.31113   12.25839   14.73551
      H1     7.19143   11.93916   14.46692
       H     3.56889   12.00653   19.13380
       O     2.98655   12.59262   19.65734
      H1     3.34178   13.47476   19.58033
       H     4.92069    8.64336   14.33197
       O     4.55671    8.06049   15.02548
      H1     4.59000    7.24611   14.47683
       H     0.58272   15.25641   16.68843
       O     1.28413   15.48768   17.32913
      H1     0.77271   15.42110   18.15217
       H     7.73728   11.18758   17.08346
       O     7.82684   11.51787   17.98918
      H1     7.34363   10.93647   18.57370
       H     2.99843   17.84866   15.07620
       O     3.97535   17.79058   15.12132
      H1     4.16828   18.67522   14.73155
       H     0.50157   11.41306   13.49705
       O     0.37926   11.85176   12.67030
      H1     0.88325   11.35205   12.06876
       H    -3.31554   11.44985   12.54889
       O    -2.48978   10.97905   12.74551
      H1    -1.73903   11.61160   12.59082
       H     2.37241    9.50656   13.10148
       O     3.14245   10.08061   12.94236
      H1     3.12897   10.67181   13.67134
       H     3.44718   10.17947   17.77205
       O     4.06033   10.95746   17.62227
      H1     3.79907   11.34116   16.74399
       H     2.81532   12.68160   12.69169
       O     3.42479   13.15610   13.26831
      H1     4.23193   12.61192   13.24794
       H    -3.54159    7.71536   18.49319
       O    -3.01178    7.55283   19.34075
      H1    -3.12421    6.61098   19.58745
       H     0.09375   19.52536   19.10519
       O    -0.04255   18.71547   18.52884
      H1     0.91905   18.45250   18.58091
       H    -0.84526   15.20027   15.63579
       O    -0.10189   15.09283   15.02339
      H1    -0.51820   15.17944   14.15508
       H    -2.16967   10.26091   18.80904
       O    -2.78352   10.87564   19.19196
      H1    -2.15479   11.58432   19.40796
       H     0.65498   16.63708   14.69751
       O     1.11593   17.35533   14.26165
      H1     1.44972   16.85231   13.44006
       H     0.17996    7.07254   15.93058
       O    -0.12825    7.32890   15.07310
      H1    -0.98054    6.90978   15.22746
       H     1.26455   11.23919   15.39692
       O     0.56434   10.57007   15.28748
      H1     0.90261    9.75707   15.67879
       H    -2.38431   13.52904   17.45106
       O    -1.61911   14.09919   17.28948
      H1    -1.01088   13.33222   17.26229
       H     3.62623    6.64219   18.68064
       O     2.69473    6.81862   18.48345
      H1     2.38209    6.94383   19.34226
       H    -0.69532    5.95665   17.84528
       O    -0.30088    6.81116   17.79621
      H1     0.55481    6.55285   18.15393
       H     2.41187    8.13751   17.33131
       O     2.38323    8.78601   16.62869
      H1     3.15874    8.50624   16.07961
       H    -3.68999   15.02661   15.40598
       O    -3.80360   15.77971   14.80840
      H1    -3.49734   16.54901   15.38746
       H     0.89299   15.06545   11.38811
       O     0.94840   15.81044   12.02672
      H1     0.17017   15.72708   12.52531
       H     2.60689   16.84565   18.12683
       O     2.48241   17.72492   18.53787
      H1     3.21828   18.27047   18.22975
       H    -4.83797   13.15515   15.76270
       O    -4.48708   12.67793   14.99936
      H1    -3.51788   12.66478   15.26710
       H     4.44903   15.88769   19.87581
       O     4.04943   15.02559   19.67037
      H1     4.31800   14.90578   18.74319
       H    -5.03338   14.82137   17.47529
       O    -4.58932   13.95660   17.47734
      H1    -5.08314   13.46952   18.12640
       H     4.75371   14.40532   16.40703
       O     5.01609   13.87432   17.22572
      H1     5.94651   14.03635   17.33605
       H    -2.32994   14.84126   12.39275
       O    -1.77457   15.51467   12.87980
      H1    -2.42234   15.75913   13.53884
       H     0.45637    9.95966   17.69304
       O    -0.25456    9.81615   18.35790
      H1    -0.53651    8.92797   18.16351
       H     2.91224   12.62557   16.17787
       O     2.99149   11.98099   15.48912
      H1     3.25491   12.56956   14.79969
       H     1.25051   12.46945   18.11573
       O     0.99078   12.61744   17.18228
      H1     0.97265   13.56831   17.08657
       H     0.35204    8.48517   12.11992
       O     0.98876    8.32216   12.79068
      H1     0.42774    8.00739   13.51194
       H    -2.27541   10.86425   14.63112
       O    -2.27657   11.08099   15.57590
      H1    -1.35421   10.85471   15.77367
       H    -3.34678    9.37643   16.38679
       O    -3.57915    8.56188   16.71163
      H1    -4.52961    8.57595   16.51268
       H     5.26517    9.60462   12.89317
       O     6.01935    9.75393   13.42350
      H1     5.94055   10.74494   13.59820
       H     4.47598   14.84876   14.04562
       O     4.94845   15.23188   14.83001
      H1     4.63109   16.16268   14.66692
       H    -1.32533   17.69164   18.65804
       O    -2.23318   17.27251   18.59632
      H1    -2.09238   16.30751   18.76092
       H    -3.26538   17.68233   17.08514
       O    -3.23914   18.12971   16.18898
      H1    -2.70189   18.91260   16.34924

