120
frame 0 | Written by MDAnalysis XYZWriter (release 2.4.3)
       H   -11.56525    7.28470  -10.89575
       O   -10.90685    6.67190  -11.25871
      H1   -10.47922    6.37141  -10.46579
       H   -13.66772   13.23068  -18.26744
       O   -13.93545   12.28448  -18.45386
      H1   -13.16092   11.98115  -18.96341
       H   -12.04767    9.45324  -14.85044
       O   -12.86089    9.62710  -14.33936
      H1   -13.42519    8.97877  -14.77971
       H   -15.74914    3.32841  -12.99371
       O   -15.66246    2.42574  -12.67867
      H1   -16.45817    2.27390  -12.10237
       H   -17.83086    4.27386  -18.24420
       O   -18.22434    3.55509  -17.74937
      H1   -18.61300    4.00362  -16.94861
       H   -16.39684   14.89163  -14.66657
       O   -16.46099   15.38725  -13.80417
      H1   -16.82314   14.69871  -13.21855
       H   -13.04118    9.43038  -12.27799
       O   -12.85518    9.03725  -11.44792
      H1   -12.59897    9.83858  -10.92188
       H   -16.63197    6.21115  -14.58684
       O   -17.17249    7.02124  -14.80398
      H1   -18.05148    6.65424  -14.83049
       H   -15.58423    5.46105  -13.30408
       O   -15.81816    4.86732  -14.07570
      H1   -15.01141    4.92575  -14.66091
       H   -10.93351    7.73047  -15.70112
       O   -10.66261    8.61074  -15.93461
      H1   -11.45232    8.92064  -16.33121
       H   -15.99595    7.29630   -9.20299
       O   -16.49280    6.60746   -8.70303
      H1   -17.44124    6.76124   -9.04056
       H   -17.53973    8.22105  -17.56781
       O   -17.60577    7.23889  -17.33017
      H1   -17.21152    7.15484  -16.39448
       H   -12.51126    9.48665  -19.21909
       O   -12.08577    9.64024  -18.35939
      H1   -11.19722    9.83804  -18.63812
       H   -15.10633   11.97348  -14.98883
       O   -15.90002   11.82448  -14.39102
      H1   -15.55556   12.01413  -13.50444
       H   -17.13938   12.78515  -17.52544
       O   -17.31093   12.17158  -18.21679
      H1   -16.40637   12.04515  -18.60588
       H   -19.19277    6.72813  -10.25212
       O   -19.01325    7.34929   -9.57596
      H1   -19.89358    7.69539   -9.24148
       H   -16.64113    2.39879  -15.88510
       O   -17.11530    2.00905  -15.12890
      H1   -16.56993    2.34017  -14.38646
       H   -12.93550    3.92649  -18.75851
       O   -13.30889    4.84188  -18.71125
      H1   -13.69385    4.83108  -17.86007
       H   -13.33592    3.91262  -15.33044
       O   -13.96505    4.33282  -15.94078
      H1   -14.46415    3.58199  -16.30089
       H   -13.54424    7.40583  -12.27589
       O   -13.76697    6.70513  -12.90242
      H1   -12.91707    6.58649  -13.36751
       H   -12.11282   12.10356  -14.31287
       O   -11.27265   12.52655  -13.99721
      H1   -11.36400   13.50356  -14.08520
       H   -13.72502   10.88521  -15.61434
       O   -13.72723   11.77873  -15.91269
      H1   -13.79844   11.58085  -16.87186
       H   -11.13947    5.69167  -15.04203
       O   -11.37842    6.39267  -14.43863
      H1   -10.58595    6.64221  -13.93236
       H   -19.80565    4.56688  -10.88533
       O   -19.24857    4.32020  -10.10669
      H1   -19.83984    4.64924   -9.47972
       H   -12.73260    5.24810  -10.39272
       O   -13.65255    4.92891  -10.43790
      H1   -13.77758    5.17718  -11.36537
       H   -16.21861    2.38433  -17.68791
       O   -15.36342    2.19441  -17.27904
      H1   -15.17228    1.30596  -17.62195
       H   -13.82672   11.84439   -9.28898
       O   -13.71941   12.29267  -10.13595
      H1   -12.78889   12.55405  -10.12912
       H   -11.75685   12.79923  -16.47068
       O   -11.23258   12.72510  -17.30118
      H1   -11.34152   13.55719  -17.71510
       H   -18.23912   13.30632  -12.64616
       O   -17.85840   13.96452  -12.03157
      H1   -17.08392   13.49866  -11.66253
       H   -11.87073    5.96117  -17.91094
       O   -11.02244    6.23339  -17.46556
      H1   -10.61352    6.72808  -18.13565
       H   -18.24283    9.99523  -11.00697
       O   -17.41881   10.38473  -10.68980
      H1   -17.65434   10.98735   -9.94608
       H   -16.92455   10.18321  -17.86764
       O   -16.10134    9.66285  -17.84921
      H1   -15.98049    9.53877  -16.84747
       H   -16.01909   11.44359  -11.36224
       O   -15.69736   12.33978  -11.72804
      H1   -14.87698   12.44149  -11.23030
       H   -19.61409   12.05272  -13.00026
       O   -19.15259   12.03661  -13.86667
      H1   -18.50245   11.34773  -13.69238
       H   -15.99062   10.14064  -14.72218
       O   -15.63997    9.30124  -15.11351
      H1   -16.27883    8.68354  -14.80460
       H   -12.64718    2.40417  -14.34384
       O   -12.21673    3.20584  -14.12172
      H1   -11.32623    2.98204  -14.52186
       H   -15.96978    9.69190  -10.10406
       O   -15.22908    9.21408   -9.62939
      H1   -14.58857    9.12209  -10.34680
       H   -16.91149    6.13037  -18.45462
       O   -16.61147    5.63669  -19.25023
      H1   -17.23801    5.92284  -19.94179
       H   -17.67342   14.31039  -16.15081
       O   -16.76270   14.18771  -16.48309
      H1   -16.85950   14.87091  -17.23263
       H   -19.58218   10.46122  -17.54924
       O   -19.12459   10.24048  -18.36958
      H1   -18.67841   11.13506  -18.52308

