120
frame 0 | Written by MDAnalysis XYZWriter (release 2.4.3)
       H    -1.77808    0.46496  -14.07849
       O    -1.47146   -0.04014  -13.27592
      H1    -2.29822    0.06305  -12.73090
       H    -1.53849   -3.08477  -13.67188
       O    -2.14277   -2.49417  -14.10442
      H1    -1.71669   -1.63223  -13.84486
       H    -6.63011   -1.69347  -10.86875
       O    -7.57799   -1.43210  -11.04835
      H1    -7.77649   -0.98918  -10.21949
       H    -4.91380    1.80285  -14.66154
       O    -5.73769    1.33965  -14.49054
      H1    -6.34959    1.45920  -15.24733
       H    -5.58906   -1.95744  -15.03623
       O    -5.55494   -1.32019  -15.75169
      H1    -5.56930   -0.49700  -15.21715
       H    -4.51165   -1.43723  -17.39140
       O    -4.38766   -1.30642  -18.33197
      H1    -5.22745   -1.52675  -18.74894
       H     0.52451   -2.69104  -12.10120
       O     0.07430   -2.87275  -11.28079
      H1     0.36169   -3.74991  -11.02368
       H     2.52867    1.09923  -14.77446
       O     1.87487    1.68381  -15.14785
      H1     2.06612    2.48320  -14.55701
       H    -0.12116    0.49709  -11.77530
       O    -0.01162    1.25968  -11.17149
      H1    -0.75053    1.83749  -11.34212
       H    -6.31670   -5.40191  -13.48114
       O    -5.77827   -5.42031  -12.70707
      H1    -6.48079   -5.25563  -12.06339
       H    -2.96244   -5.98880  -12.43694
       O    -3.33722   -6.52165  -11.67819
      H1    -3.92807   -5.90415  -11.27944
       H     0.63327   -2.17784   -8.49555
       O     0.40036   -1.27406   -8.79871
      H1    -0.19044   -1.42290   -9.55887
       H     2.03335   -4.35610  -10.11621
       O     1.35604   -4.98407  -10.54900
      H1     0.72117   -5.13997   -9.84990
       H    -0.55171   -7.83390  -11.90230
       O    -0.05767   -7.33424  -12.51428
      H1     0.86297   -7.68272  -12.41602
       H     3.88415   -4.44979  -15.24735
       O     3.74137   -5.37114  -15.28146
      H1     2.78309   -5.43174  -15.19935
       H     2.07772   -6.63891  -10.90298
       O     2.45794   -7.50552  -11.21551
      H1     3.12748   -7.23565  -11.89551
       H    -0.64295   -2.82976  -16.87560
       O    -1.32126   -3.39933  -16.52936
      H1    -1.63996   -2.84818  -15.79061
       H     2.92341   -2.09034  -12.18819
       O     3.86042   -1.99492  -12.15919
      H1     3.92142   -1.08512  -12.50923
       H    -0.59388    0.48615  -19.25090
       O    -1.45873    0.09294  -19.05031
      H1    -1.35674   -0.86710  -19.31206
       H    -3.12943    1.62422  -16.49317
       O    -2.90613    1.34467  -15.52008
      H1    -3.12933    2.20489  -15.10960
       H    -2.65376   -7.60493  -16.81405
       O    -3.41418   -6.97990  -16.98497
      H1    -4.09812   -7.68320  -16.97320
       H    -1.10153   -4.55351  -12.04967
       O    -1.11413   -4.93050  -12.91836
      H1    -0.53062   -5.66132  -12.69910
       H     0.94138   -6.39764  -15.45451
       O     0.83303   -7.31599  -15.13051
      H1     0.21529   -7.32386  -14.39327
       H    -2.35264   -4.17069  -17.91254
       O    -2.82770   -4.29433  -18.75096
      H1    -3.04623   -3.35232  -18.96615
       H     0.82593   -4.59082  -19.27988
       O     1.20379   -4.49738  -18.37594
      H1     1.63319   -3.62026  -18.49710
       H    -0.97567   -9.05934  -16.81065
       O    -1.00122   -8.11460  -16.75789
      H1    -0.24344   -7.93829  -16.10485
       H    -4.64924   -0.28441  -12.38002
       O    -4.00128   -0.03721  -11.70043
      H1    -4.19027    0.91875  -11.42768
       H    -2.39478   -2.61801   -8.09343
       O    -2.26355   -3.19739   -8.86075
      H1    -2.58451   -4.05743   -8.58675
       H     4.58906   -2.46128  -13.55179
       O     4.99698   -2.70813  -14.38234
      H1     5.12940   -1.83134  -14.70999
       H    -0.65286   -4.14603   -8.40423
       O     0.24705   -4.25618   -7.97258
      H1     0.20033   -5.18793   -7.63088
       H    -2.04279   -7.01321  -10.61771
       O    -1.41511   -7.39636   -9.94950
      H1    -1.59262   -8.33176  -10.02652
       H    -3.89441   -8.46481  -13.90570
       O    -4.71174   -7.92455  -13.87422
      H1    -4.52371   -7.21382  -13.25665
       H    -3.99753   -3.03789  -13.78954
       O    -4.93695   -2.97629  -13.47403
      H1    -5.01605   -3.87070  -13.13331
       H     0.01632    1.84470  -15.84241
       O    -0.58181    2.03513  -16.61139
      H1    -1.39814    1.60523  -16.24727
       H    -4.44634   -0.85331  -10.42042
       O    -4.51105   -1.40197   -9.60696
      H1    -3.85935   -2.16643   -9.70213
       H    -0.09825    0.09517  -16.48988
       O     0.27060   -0.72545  -16.83300
      H1    -0.27483   -0.96005  -17.61621
       H    -5.35573   -5.22392  -17.25968
       O    -5.30806   -4.47643  -17.89569
      H1    -4.32414   -4.61980  -18.02894
       H     1.06616   -4.71223  -16.60251
       O     0.92856   -4.72328  -15.62399
      H1     0.11378   -4.20901  -15.57013
       H    -6.56615   -6.91792  -16.01002
       O    -6.19219   -6.12263  -15.64953
      H1    -5.45746   -6.39731  -15.11378
       H     1.50843   -3.04671  -14.68000
       O     1.43282   -2.32053  -13.97563
      H1     1.23503   -1.58943  -14.56353

