120
frame 1 | Written by MDAnalysis XYZWriter (release 2.4.3)
       H    -2.11658   13.40500   -2.61021
       O    -2.02306   13.55447   -1.65220
      H1    -1.99452   14.52469   -1.57825
       H    -3.11088    9.55527   -6.21620
       O    -3.72243    8.80732   -6.12771
      H1    -3.40662    8.22003   -6.77679
       H    -3.68948   12.29658   -6.46841
       O    -2.93240   11.70788   -6.49334
      H1    -2.14693   12.16208   -6.93442
       H    -4.74360   16.19759   -5.29584
       O    -3.93174   16.47608   -4.82744
      H1    -3.94077   15.85784   -3.98748
       H    -0.77167   12.04806   -1.76225
       O    -0.47804   11.19150   -1.41699
      H1     0.18735   10.81417   -2.02393
       H     3.33910   15.13922   -2.00452
       O     3.68504   15.96132   -2.34892
      H1     2.96409   16.39316   -2.81207
       H     0.98115   11.87622    2.36730
       O     1.32249   11.02035    2.74764
      H1     0.84919   10.47301    2.08924
       H    -4.10588    8.60859    0.79632
       O    -4.59944    9.42156    1.21545
      H1    -4.30587    9.42083    2.14196
       H    -0.54537   13.65168    3.03812
       O    -0.99616   14.00372    3.77235
      H1    -1.76719   14.42642    3.41351
       H     4.03479   11.88313   -1.40288
       O     3.61020   12.15942   -2.23568
      H1     3.08197   11.39682   -2.52826
       H    -4.53663   11.72081   -0.24783
       O    -5.37600   12.06502   -0.56904
      H1    -5.94704   11.78080    0.09984
       H    -2.87626   15.72063   -0.27079
       O    -2.10798   16.10432   -0.75429
      H1    -2.51765   16.13518   -1.66783
       H    -5.33653   14.96243   -2.06018
       O    -4.62607   14.71235   -2.72991
      H1    -4.22211   14.06886   -2.11797
       H     4.34900    9.75216    2.32672
       O     3.87238   10.43899    1.88911
      H1     2.99537   10.33125    2.38186
       H    -2.54925    9.98439   -0.26246
       O    -2.11976    9.12630   -0.52953
      H1    -1.27109    9.45185   -0.83795
       H     2.42168   13.31754   -1.50750
       O     1.77383   13.98150   -1.24902
      H1     1.58725   13.70199   -0.34517
       H    -1.27878    6.32285    0.30460
       O    -1.63975    6.22870   -0.58602
      H1    -1.87108    7.16454   -0.71592
       H     1.09330   14.73666   -2.88485
       O     0.75563   14.74263   -3.84691
      H1     0.32307   13.86227   -3.81677
       H    -0.41005   12.86675   -8.74470
       O    -0.66518   12.53722   -7.81427
      H1    -0.61707   13.41615   -7.38875
       H     3.43093   15.43133   -5.81130
       O     2.76172   14.75495   -5.69540
      H1     2.33824   15.14829   -4.89060
       H    -1.77094   13.29286   -4.74130
       O    -1.44808   12.63599   -4.15068
      H1    -2.11518   11.90162   -4.33906
       H    -1.72776   15.40386   -6.48100
       O    -2.24338   14.64342   -6.16835
      H1    -3.14688   15.02860   -6.17339
       H    -3.59266   16.04252    2.94198
       O    -3.23329   15.15494    2.83421
      H1    -3.75777   14.99076    1.98014
       H    -1.29588    9.28858    1.31765
       O    -0.80957    9.60669    2.08815
      H1    -0.62491    8.75099    2.49922
       H     5.00819   12.64243   -3.07220
       O     5.90232   12.76085   -3.47596
      H1     5.83333   12.02391   -4.08669
       H    -3.99569    7.53254   -4.40115
       O    -3.75469    7.46721   -3.43745
      H1    -3.51736    6.55246   -3.24619
       H    -1.46032   17.11694   -4.67198
       O    -1.15628   16.61505   -3.88623
      H1    -0.49858   16.01742   -4.33364
       H    -2.96398    9.42999   -3.69521
       O    -2.29450   10.10671   -3.53941
      H1    -2.07291    9.97080   -2.61408
       H    -5.16248   11.41045   -2.18335
       O    -4.86492   11.40527   -3.11231
      H1    -4.01918   10.94124   -3.06040
       H    -4.73813   13.39024   -4.65249
       O    -5.17140   13.19231   -5.48585
      H1    -6.08083   13.16655   -5.23874
       H     3.83433    8.70441   -0.61509
       O     2.99633    8.36690   -0.29714
      H1     3.13119    7.41596   -0.33470
       H    -2.79999   11.24836    1.39145
       O    -2.91027   11.45120    0.46604
      H1    -2.17424   12.12350    0.36248
       H     0.22267   17.14882   -3.23080
       O     0.97316   17.52748   -2.81336
      H1     1.07618   18.36528   -3.24856
       H    -5.16578   15.11178    0.75257
       O    -4.28617   14.63305    0.58848
      H1    -4.59574   13.79598    0.18465
       H     0.37761    7.88173   -2.40866
       O     0.67808    8.68761   -1.93930
      H1     1.43686    8.37216   -1.33167
       H     0.61422   14.43120    1.62259
       O     1.04037   13.55548    1.53629
      H1     1.93125   13.68214    1.87301
       H     0.53287   11.02444   -4.39652
       O     1.04310   10.94401   -3.57520
      H1     1.16704    9.95134   -3.52174
       H     2.76813   12.99146   -5.37261
       O     2.81929   12.04753   -5.41476
      H1     2.04106   11.74519   -4.85418
       H     0.53210   16.37948   -0.04419
       O     0.03991   16.30061    0.75281
      H1    -0.86805   16.03611    0.43665
       H    -0.16901   11.25496   -6.47973
       O    -0.55994   10.54226   -5.96221
      H1    -1.50229   10.76856   -6.07266

