120
frame 1 | Written by MDAnalysis XYZWriter (release 2.4.3)
       H    -5.73929   -7.96234   -2.63323
       O    -5.32398   -8.39131   -1.88249
      H1    -5.14897   -7.61155   -1.37547
       H   -10.30454  -16.75407   -3.08559
       O    -9.79082  -16.09313   -3.54021
      H1    -9.23254  -16.58027   -4.13379
       H    -7.18284   -8.13918    2.13033
       O    -8.10411   -7.83407    2.01475
      H1    -8.20166   -7.94300    1.01972
       H    -4.12108  -17.31127   -4.18453
       O    -3.30499  -16.84121   -4.14338
      H1    -3.01561  -16.66495   -5.06612
       H    -9.60395   -7.32784   -5.42494
       O    -9.36147   -7.52429   -4.48841
      H1    -9.80267   -6.77428   -4.03698
       H   -10.96144  -11.92162   -8.15726
       O   -10.24313  -11.90621   -7.43069
      H1    -9.99340  -12.82459   -7.33594
       H    -9.31165  -14.95819   -6.62816
       O    -9.19620  -14.00844   -6.30780
      H1    -8.31890  -13.76317   -6.50500
       H    -2.35107  -14.58626   -4.19441
       O    -1.87547  -13.76382   -4.43275
      H1    -2.48905  -13.06097   -4.65756
       H    -8.46994  -18.48667   -5.68827
       O    -8.21737  -17.55885   -5.45394
      H1    -8.03729  -17.22027   -6.32795
       H    -9.70944  -12.31331    3.93544
       O    -9.41235  -11.81721    3.15291
      H1    -9.00778  -12.42851    2.53454
       H   -11.25787  -12.38865   -0.09009
       O   -10.37101  -12.18067   -0.48923
      H1   -10.28704  -11.33720   -0.89859
       H    -6.05429  -15.39275   -6.59275
       O    -6.75469  -15.88996   -7.07380
      H1    -7.06842  -15.38719   -7.83971
       H    -3.10679  -10.94630   -4.52954
       O    -3.03547  -11.13019   -5.45307
      H1    -2.45791  -10.44506   -5.85035
       H    -7.66882  -15.82783    3.12111
       O    -6.91007  -15.43988    2.65361
      H1    -7.15230  -15.62774    1.71123
       H    -5.36517  -11.84628    0.81857
       O    -5.74116  -11.84101    1.73908
      H1    -5.28122  -12.40804    2.34050
       H    -9.29544  -14.78292   -2.24378
       O    -8.83951  -14.04605   -1.86838
      H1    -9.39548  -13.62825   -1.24839
       H    -4.51543  -13.98107   -6.20418
       O    -4.72407  -14.79919   -5.74320
      H1    -5.37810  -14.65449   -5.05748
       H    -5.61553  -15.20137   -0.71294
       O    -4.95465  -14.69976   -1.19857
      H1    -4.14259  -15.24292   -1.07432
       H    -5.67311  -18.93306   -3.67284
       O    -5.61678  -18.38940   -4.41878
      H1    -6.47822  -17.93973   -4.58663
       H    -7.62846   -7.41833   -3.97787
       O    -6.70811   -7.23788   -3.90299
      H1    -6.26276   -7.50153   -4.71837
       H    -8.48966   -8.90637   -1.11636
       O    -8.01263   -8.11385   -0.82339
      H1    -7.05508   -8.27416   -1.02455
       H    -8.49435  -10.96692   -5.28356
       O    -7.48502  -10.98791   -5.43312
      H1    -7.22310  -11.43136   -4.61946
       H    -5.33461   -7.39773   -7.15770
       O    -5.58278   -7.79520   -6.29419
      H1    -5.77181   -8.73498   -6.57994
       H    -3.92378  -12.07630   -6.61925
       O    -4.56351  -12.55763   -7.21319
      H1    -5.22666  -11.86501   -7.25616
       H    -6.77886  -14.23467   -3.14589
       O    -6.34772  -14.95531   -3.62145
      H1    -5.50246  -15.10559   -3.09965
       H    -8.76027  -10.96994   -2.41040
       O    -9.24092  -10.18267   -2.36319
      H1    -8.94223   -9.56443   -3.03808
       H    -7.80233  -12.81260   -2.38014
       O    -7.26305  -12.20294   -2.95632
      H1    -6.54014  -12.04630   -2.34813
       H    -4.52314  -11.36759   -1.36982
       O    -5.13629  -11.88571   -0.82924
      H1    -4.83250  -12.78165   -0.93701
       H    -7.25504  -16.52332   -0.73520
       O    -7.04521  -15.87723   -0.03315
      H1    -7.47191  -15.05110   -0.22693
       H    -7.41627  -12.23959    1.03280
       O    -8.04856  -12.94529    0.82713
      H1    -8.85680  -12.57496    0.40650
       H   -12.33640  -11.51576   -3.02902
       O   -11.83145  -12.22892   -3.39775
      H1   -11.03109  -11.79485   -3.63474
       H   -12.26082  -14.88123   -5.49141
       O   -11.97040  -15.80265   -5.21205
      H1   -11.08223  -15.72888   -4.86806
       H    -8.07064  -17.58395   -2.57618
       O    -7.22973  -17.21553   -2.28031
      H1    -7.01379  -16.49068   -2.94163
       H    -6.88186  -10.35519   -6.99233
       O    -6.22254  -10.16290   -7.75567
      H1    -6.78070  -10.33428   -8.51948
       H    -5.52776   -9.94433    2.05369
       O    -5.35468   -9.03201    2.10298
      H1    -5.43480   -8.71976    3.01293
       H   -10.48990   -9.35320   -5.43740
       O   -10.52455  -10.28530   -5.14138
      H1   -10.49140  -10.81039   -5.94977
       H    -7.95744  -12.53134   -9.44901
       O    -7.89404  -11.54953   -9.47909
      H1    -8.58685  -11.21854   -8.85680
       H   -12.27860  -13.91774   -2.72262
       O   -12.59414  -14.67709   -2.25506
      H1   -12.32351  -15.47956   -2.70225
       H   -13.89300  -13.38030   -5.98914
       O   -12.89909  -13.47148   -6.22678
      H1   -12.47246  -12.81150   -5.60754
       H    -4.02662   -9.98733   -2.56127
       O    -3.40609  -10.71088   -2.67285
      H1    -2.51054  -10.52928   -2.28633

