120
frame 0 | Written by MDAnalysis XYZWriter (release 2.4.3)
       H    -8.01830    1.00376   -6.05311
       O    -8.82516    1.59565   -6.10251
      H1    -8.53465    2.11472   -6.86185
       H    -8.56431    0.98178   -8.65068
       O    -8.69747    0.03901   -8.80357
      H1    -9.07158   -0.22391   -7.92826
       H   -10.09984   -3.94593   -4.63857
       O   -10.75867   -3.78271   -3.91121
      H1   -10.52497   -4.50323   -3.29590
       H    -6.63011   -1.69347  -10.86875
       O    -7.57799   -1.43210  -11.04835
      H1    -7.77649   -0.98918  -10.21949
       H   -11.37743   -3.60681   -0.92262
       O   -11.46507   -2.64232   -0.92971
      H1   -10.65424   -2.29521   -0.56547
       H   -12.35822    1.46482   -3.56012
       O   -11.55356    0.90484   -3.50576
      H1   -11.77935   -0.07460   -3.68523
       H   -12.20045   -4.11743   -8.72764
       O   -12.06172   -3.21411   -9.07545
      H1   -12.30805   -2.63532   -8.31374
       H    -6.40916   -6.27229   -3.45447
       O    -5.68217   -6.16272   -2.74738
      H1    -5.42556   -5.24910   -3.01291
       H    -3.34337   -0.35397   -2.55806
       O    -3.37984   -0.82468   -1.68231
      H1    -2.73027   -0.34218   -1.12251
       H    -6.20642    4.49808   -5.25523
       O    -5.76899    4.17547   -4.47049
      H1    -5.56191    3.31514   -4.88255
       H   -10.06114   -6.62788   -7.38228
       O    -9.64366   -6.15619   -6.64514
      H1    -9.28094   -6.78007   -5.97937
       H   -14.90484   -0.05624   -5.82217
       O   -14.87752    0.02810   -6.79798
      H1   -14.02808   -0.43529   -7.06732
       H    -9.94827    0.24476   -9.92736
       O   -10.59538    0.52047  -10.64013
      H1   -11.40526    0.53262  -10.08210
       H   -12.78907   -0.15474    0.12256
       O   -13.06783   -1.07646    0.29868
      H1   -12.49266   -1.65333   -0.27351
       H    -9.17231   -1.96181    0.88100
       O    -9.34449   -1.42220    0.08667
      H1    -8.46009   -1.36112   -0.24185
       H    -6.45101   -2.21160    0.14805
       O    -6.45420   -2.08072    1.09904
      H1    -6.36264   -1.09877    1.17920
       H    -9.23233   -2.32109   -3.71838
       O    -8.97139   -1.69074   -4.44429
      H1    -8.61222   -1.01770   -3.89007
       H    -3.95725   -1.52407   -4.76857
       O    -3.98377   -2.47348   -5.12996
      H1    -4.64014   -2.36624   -5.83913
       H    -7.00338    0.66321   -2.79986
       O    -6.97095   -0.13473   -3.39109
      H1    -6.66344   -0.72257   -2.71740
       H   -13.43407    4.04141   -3.97003
       O   -13.10427    3.15901   -3.83065
      H1   -12.37311    3.17377   -4.54665
       H    -9.81814   -1.22683   -5.83566
       O   -10.31533   -1.06612   -6.68179
      H1   -10.49108   -0.16724   -6.49440
       H    -8.05291   -4.86648   -9.40771
       O    -7.73305   -5.13064   -8.49455
      H1    -8.59476   -5.52275   -8.19627
       H   -10.84655   -6.53466   -2.65087
       O    -9.89240   -6.22436   -2.80356
      H1    -9.36848   -6.80746   -2.21069
       H    -9.60791    0.34991    0.55382
       O    -9.94314    1.19966    0.83552
      H1    -9.37725    1.34264    1.61648
       H    -6.43835   -5.51622    0.10519
       O    -7.31634   -5.04005    0.03515
      H1    -7.54129   -4.98880    0.97582
       H   -12.56270   -2.73645   -6.16899
       O   -12.76666   -2.00076   -6.75082
      H1   -11.88419   -1.55510   -6.63991
       H    -6.69860    2.78671   -1.83518
       O    -7.07612    1.93700   -1.54370
      H1    -6.67982    1.84275   -0.66654
       H    -3.58111    1.78030   -6.99320
       O    -4.23600    1.81108   -6.29176
      H1    -4.84576    1.13155   -6.61048
       H   -11.66487    1.16661   -1.60360
       O   -12.02979    1.42737   -0.72495
      H1   -11.16962    1.43553   -0.25030
       H    -5.00174   -1.33497   -1.47033
       O    -5.92119   -1.71028   -1.47972
      H1    -5.61086   -2.66299   -1.67324
       H    -8.50879    3.11803   -1.42023
       O    -9.01915    3.91431   -1.02147
      H1    -9.52233    4.16008   -1.82262
       H    -3.74380   -3.61805   -2.28967
       O    -4.66001   -3.61295   -2.58428
      H1    -4.54605   -3.09190   -3.42164
       H   -11.32898    1.78779   -7.33082
       O   -11.67248    1.25961   -8.06854
      H1   -12.63495    1.16262   -7.88626
       H   -13.70518   -4.77460   -4.91676
       O   -13.27594   -4.84610   -3.98113
      H1   -12.55894   -4.18332   -3.95922
       H    -8.46513   -3.16348   -5.35970
       O    -7.91741   -3.89239   -5.56268
      H1    -8.28627   -4.09855   -6.46906
       H    -8.65260   -6.53484   -4.12751
       O    -7.75792   -6.52691   -4.52041
      H1    -7.75584   -5.66218   -4.96079
       H   -11.81026   -2.16892   -2.98923
       O   -12.39594   -1.63718   -3.55498
      H1   -13.08176   -1.24843   -2.96970
       H    -6.47012   -0.73969   -6.46012
       O    -6.47256    0.14031   -5.98844
      H1    -6.64859   -0.20382   -5.05365
       H   -10.23101    3.32279   -5.47934
       O   -11.15870    3.25209   -5.72728
      H1   -11.29830    4.21510   -5.95123
       H    -5.54701   -1.81992   -8.26333
       O    -6.13215   -2.12032   -7.53875
      H1    -6.42708   -2.97268   -7.90266

