120
frame 1 | Written by MDAnalysis XYZWriter (release 2.4.3)
       H     5.42979   17.67278  -13.33554
       O     4.62944   18.24172  -13.32362
      H1     4.15545   18.24027  -12.52465
       H     3.95783   13.83248  -19.95153
       O     3.21434   13.24453  -19.76485
      H1     2.84272   13.60947  -18.95460
       H    11.32221   10.71243  -14.71022
       O    11.49651   11.57620  -14.44767
      H1    12.35647   11.78627  -13.96282
       H    11.38745   16.58328  -16.34464
       O    12.05692   15.93826  -16.56072
      H1    11.69546   15.08602  -16.72504
       H    15.11202   14.63878  -15.57576
       O    15.28546   14.62599  -14.60923
      H1    14.93804   13.73238  -14.36883
       H    10.24729   15.93239  -13.54489
       O     9.80461   16.27064  -14.29346
      H1     9.43462   15.56209  -14.84031
       H     7.19566   18.24619  -18.12910
       O     6.80659   19.08281  -18.16342
      H1     7.59167   19.67578  -18.47565
       H     7.43783   16.21145  -13.14440
       O     6.55042   16.18160  -12.72582
      H1     6.60273   16.11990  -11.75532
       H     4.35575   16.66243  -14.97560
       O     3.89225   16.54308  -15.85384
      H1     3.29726   17.32574  -15.99264
       H     5.27086   13.81023  -15.45650
       O     6.24206   13.87696  -15.52755
      H1     6.60609   13.02151  -15.25550
       H    17.73333   17.08440  -14.77676
       O    17.71277   17.62252  -15.61301
      H1    16.71503   17.64020  -15.89580
       H    10.94088   12.67310   -9.83900
       O    10.15317   13.34583   -9.91352
      H1    10.05912   13.56847  -10.84332
       H    10.33025   19.15908  -15.76348
       O    10.81874   18.60330  -15.18532
      H1    10.25749   17.86629  -14.86728
       H     7.78270    9.91742  -16.95700
       O     8.67629   10.25980  -16.74516
      H1     8.89479   10.74014  -17.55928
       H     7.51302   14.89493  -16.08184
       O     8.36884   15.10003  -16.48042
      H1     8.38571   16.03419  -16.83665
       H     1.67644   13.57908  -16.79472
       O     2.08835   14.23969  -17.35338
      H1     2.37753   14.92904  -16.78076
       H     8.84985   16.82201  -18.88716
       O     8.96943   17.31717  -18.03870
      H1     9.81961   17.73193  -18.23428
       H     1.09057   17.79117  -13.30675
       O     1.53536   18.55687  -13.56020
      H1     1.95030   18.53731  -14.42903
       H    15.80331   16.80139  -18.44511
       O    16.19958   16.04923  -18.91689
      H1    15.83970   15.26931  -18.57641
       H    14.51443   18.50227  -13.46623
       O    14.60198   19.16924  -14.12512
      H1    15.34162   19.69708  -13.79688
       H    14.71257   11.73487  -13.92126
       O    14.17050   12.38957  -13.54822
      H1    14.30927   12.39955  -12.61320
       H     6.17910   18.41804  -10.28401
       O     5.89948   19.22796  -10.76790
      H1     4.93614   19.44467  -10.80669
       H     6.11864   13.19785  -17.35670
       O     6.29823   12.54968  -18.06524
      H1     7.22253   12.29507  -17.93331
       H     9.40386   13.58547  -18.98080
       O     9.18007   13.11567  -18.18431
      H1     8.70704   13.93648  -17.79583
       H    12.20214   16.92221  -18.20177
       O    11.81739   17.32484  -19.01319
      H1    12.39536   18.02692  -19.25175
       H    13.51795   15.51760  -14.11677
       O    12.96431   16.22112  -13.85515
      H1    12.42035   16.47491  -14.60054
       H     3.28557   12.93559  -16.44253
       O     3.62102   12.83322  -15.55992
      H1     3.53907   11.87590  -15.34600
       H    10.35692   12.15741  -13.38496
       O     9.58177   12.27341  -12.78113
      H1     9.35609   11.41970  -12.34223
       H     1.72283   18.65080  -16.89048
       O     2.43783   18.98712  -16.32034
      H1     3.01110   19.20876  -17.11094
       H     5.36550   10.50321  -17.43105
       O     5.83202    9.68051  -17.39594
      H1     6.16003    9.62890  -18.31489
       H     6.01505   14.05798  -12.10583
       O     5.57803   13.81149  -11.28009
      H1     4.82701   14.40719  -11.15312
       H    12.34042   11.92493  -17.72513
       O    12.50249   11.44015  -18.54048
      H1    13.05338   10.71590  -18.24572
       H     9.57335   18.51712  -10.79908
       O     8.71875   18.19274  -11.16707
      H1     8.47398   18.78613  -11.89846
       H     2.67060   13.73762  -13.84690
       O     2.38876   13.73771  -12.88489
      H1     1.50846   13.27407  -12.89422
       H     6.49762   10.45121  -14.02889
       O     5.65493   10.02232  -13.86704
      H1     5.29281   10.48839  -13.06197
       H    10.77925   16.65324  -11.44362
       O    11.00268   15.81737  -11.90462
      H1    11.76372   16.03635  -12.46926
       H    14.94158   18.39389  -16.28610
       O    14.85989   17.45767  -16.46268
      H1    14.31675   17.02555  -15.74715
       H    10.65918   13.14808  -17.06578
       O    11.53980   12.97935  -16.76099
      H1    11.49150   12.53843  -15.87539
       H     8.26090   12.07345  -13.99858
       O     7.62274   11.80606  -14.69844
      H1     8.18447   11.46900  -15.38736
       H    14.50281   13.87435  -18.03456
       O    15.09988   13.71846  -17.29323
      H1    16.01431   13.84394  -17.53754

