120
frame 0 | Written by MDAnalysis XYZWriter (release 2.4.3)
       H   -13.18292    6.90435   14.51152
       O   -12.64234    6.59382   15.21758
      H1   -12.01998    7.35077   15.35960
       H   -15.24278    4.11699   19.35919
       O   -15.24421    3.17820   19.17294
      H1   -15.99453    2.95194   18.63868
       H    -9.21557    6.89027   14.24595
       O    -9.27839    7.46160   13.42593
      H1    -8.39264    7.87241   13.44290
       H    -8.05661   15.53127   17.65742
       O    -8.94824   15.69702   17.79443
      H1    -9.41126   15.48500   16.99336
       H   -13.89310   15.29508   17.11301
       O   -13.69449   14.75845   16.31860
      H1   -13.90506   13.87064   16.69167
       H   -13.38093    9.00154   12.63864
       O   -13.48951    9.96892   12.64331
      H1   -12.59424   10.16909   12.96753
       H   -10.26069    4.70283   15.29467
       O   -10.63346    4.73991   14.40590
      H1   -11.25604    5.48434   14.53528
       H    -9.90688    5.04611   18.12713
       O   -10.87646    5.11519   17.90087
      H1   -11.18322    4.32824   18.49287
       H    -9.20207    2.76637   16.85213
       O   -10.03858    2.55691   16.46165
      H1   -10.64305    3.09469   16.96506
       H   -15.30672    7.55780   13.44503
       O   -14.59775    6.96802   13.12815
      H1   -14.83044    7.01679   12.24455
       H   -14.16698    3.56413   16.53371
       O   -14.82352    4.14570   16.15180
      H1   -14.69764    4.96105   16.62545
       H   -19.12505    5.87421   17.57654
       O   -18.20573    6.07676   17.26852
      H1   -18.25146    6.98159   16.95438
       H    -8.37387   12.14252   12.26978
       O    -9.01930   12.35682   12.95511
      H1    -9.57742   11.48803   12.86640
       H    -5.99855   10.38935   17.38101
       O    -6.20681    9.61500   16.80971
      H1    -6.48976   10.05792   15.95002
       H    -6.24243    7.07972   13.90057
       O    -6.00398    7.64727   14.64340
      H1    -6.69055    7.52130   15.32790
       H   -15.22265    9.70481   14.17291
       O   -15.98662    9.09711   14.08885
      H1   -16.43836    9.57638   13.35763
       H   -13.42098    8.89069   17.90425
       O   -12.56984    9.40341   17.96110
      H1   -12.06080    8.73942   18.49627
       H   -10.51422   10.03161   14.01092
       O   -10.82057   10.49699   13.23187
      H1   -10.70458    9.82006   12.56176
       H    -8.87293   10.29126   17.23600
       O    -8.70221    9.42478   17.63047
      H1    -7.70921    9.39326   17.65570
       H   -18.02992   13.77189   18.98372
       O   -18.41491   14.67803   18.97549
      H1   -17.78164   15.03606   19.62150
       H   -11.55131    7.63707   10.75723
       O   -11.44669    8.49601   11.26198
      H1   -11.31427    9.13799   10.52940
       H    -7.08270   12.83062   15.63377
       O    -7.52249   11.95315   15.46043
      H1    -7.92776   12.20328   14.58137
       H    -5.49295   11.17928   19.53007
       O    -5.93966   11.60172   18.85354
      H1    -6.79874   11.74238   19.30891
       H   -10.40044    7.16900   18.79242
       O   -10.27314    7.92888   19.35595
      H1    -9.60892    8.41278   18.76630
       H   -14.75235   12.74141   18.70460
       O   -15.17186   12.99384   17.87013
      H1   -15.41736   13.93184   17.89914
       H   -11.77947   14.59173   16.03251
       O   -11.04618   15.21035   16.01073
      H1   -10.48267   14.77401   15.34296
       H   -10.82701   12.96505   12.25156
       O   -11.64038   13.40411   11.95688
      H1   -12.20779   12.60118   11.82482
       H   -15.49381    8.99978   19.37931
       O   -15.35491    8.70841   18.43982
      H1   -15.50282    7.73719   18.50961
       H    -7.77527    5.75669   19.02795
       O    -8.11650    5.27083   18.24535
      H1    -7.35823    5.02190   17.68523
       H   -15.24370    5.12521   13.23906
       O   -15.68214    4.28444   13.48050
      H1   -15.23244    4.08483   14.34605
       H   -15.42413   12.10919   12.71260
       O   -15.08470   12.33842   13.58449
      H1   -15.90981   12.22941   14.06668
       H   -13.21263    5.78584   18.28425
       O   -13.74205    6.28900   17.61922
      H1   -13.32075    6.32946   16.77443
       H   -10.02708    8.91915   16.12257
       O   -10.91833    9.09099   15.77032
      H1   -11.54137    9.17630   16.56465
       H   -17.89226   11.34030   14.00810
       O   -17.63170   12.08912   14.69140
      H1   -18.24880   12.82508   14.57154
       H   -16.66598   12.27466   17.49364
       O   -17.64075   12.40747   17.48308
      H1   -17.75857   12.12936   16.50387
       H   -14.84536   15.07305   14.78721
       O   -15.33269   15.05223   13.90757
      H1   -15.12520   14.14534   13.71067
       H   -13.55491   11.08406   11.50595
       O   -13.43679   11.64043   10.68109
      H1   -14.28315   12.02618   10.57823
       H    -8.56392    6.49673   17.02394
       O    -8.69772    7.14701   16.28566
      H1    -8.68586    7.96882   16.78845
       H    -9.78406   14.74245   18.99599
       O   -10.31344   14.36669   19.66945
      H1   -11.21739   14.57444   19.45011
       H   -17.06064    8.82976   15.78307
       O   -17.43317    8.69807   16.65260
      H1   -16.75581    9.07814   17.21516

