120
frame 0 | Written by MDAnalysis XYZWriter (release 2.4.3)
       H     8.30774   10.06489    2.27736
       O     7.88819   10.03873    3.17162
      H1     8.69219   10.15711    3.72002
       H    11.62364    2.78231    8.97136
       O    11.60015    3.26996    8.10718
      H1    12.27705    2.84940    7.55364
       H    12.94611    2.40289   10.60675
       O    12.01614    2.11985   10.49804
      H1    11.98609    1.21323   10.88581
       H     6.74112    3.30508   11.88436
       O     7.61258    2.98007   12.27337
      H1     7.73910    2.19744   11.76172
       H    12.11617    8.69780    7.76960
       O    11.54322    8.34338    8.44627
      H1    11.11991    7.57378    8.09452
       H     4.81776    4.40822    9.91234
       O     4.81484    4.76261    8.99999
      H1     4.07924    4.21477    8.61856
       H    14.29035    4.23470    6.77103
       O    14.28964    3.59663    7.49897
      H1    13.58384    4.03719    8.03339
       H     7.41512    5.97623    1.46856
       O     7.40893    5.37389    2.24286
      H1     6.48792    5.15077    2.35460
       H    13.30857    8.78771    9.82762
       O    13.02098    8.87002   10.73247
      H1    12.17715    8.29802   10.72333
       H     7.32529    8.41903   13.35752
       O     7.92422    7.67887   13.15672
      H1     8.51266    7.78485   13.88524
       H     9.30108    3.69639   11.14074
       O    10.12810    4.11327   10.85422
      H1    10.80856    3.41927   10.78875
       H    12.35097    6.64579    8.63571
       O    13.14337    6.06177    8.65993
      H1    13.68728    6.44483    9.42686
       H    13.95562    3.60492    2.61816
       O    13.78335    4.55906    2.93633
      H1    12.95884    4.38656    3.38402
       H     6.34980    8.64475    9.25904
       O     5.69946    9.23064    8.91218
      H1     4.94460    9.32120    9.61671
       H    11.62952    4.97435    4.84509
       O    11.60257    4.23424    4.21854
      H1    11.73088    3.40977    4.75293
       H     9.36501    5.67857    7.70750
       O    10.19799    5.51061    7.29102
      H1    10.61318    4.90874    7.88610
       H    10.08257   11.25880    5.20046
       O    10.08731   10.30072    5.07977
      H1    10.92456   10.23902    4.58245
       H     7.95882    8.44958    3.59434
       O     8.24153    7.53417    3.87189
      H1     7.73371    6.97546    3.20559
       H    13.16553    8.12919    5.64391
       O    13.58773    8.71370    6.27920
      H1    14.05420    8.09408    6.80490
       H    10.47848    2.84276    3.22333
       O    10.52830    2.12051    2.57932
      H1    10.44002    1.26480    3.11822
       H     5.43714    1.79599    4.83707
       O     5.60935    2.21723    5.68665
      H1     6.46486    1.91194    6.03054
       H    10.55298    7.06361    2.39620
       O    10.59760    7.98893    2.76731
      H1     9.68040    7.93363    3.04664
       H     9.07642    1.63448    9.76577
       O     8.63177    1.19269   10.51107
      H1     8.09194    0.51497   10.08101
       H     6.70246   11.10988    7.64949
       O     6.72532   11.93056    7.12014
      H1     6.62183   11.59478    6.25662
       H     4.78232    7.80835    5.90806
       O     5.05070    8.75426    5.87055
      H1     5.39598    8.97950    6.74451
       H    11.33257    4.87812    2.35861
       O    11.23734    5.54941    1.64361
      H1    11.71858    5.00370    0.98728
       H    15.27574    6.70955    6.54410
       O    15.63570    7.23589    7.33680
      H1    15.19214    6.78504    8.03851
       H     5.31961    8.74034    4.18494
       O     5.30484    8.36920    3.25035
      H1     4.63699    7.68498    3.47612
       H     4.81845    7.87306    8.24925
       O     3.92503    7.53562    8.06844
      H1     4.18412    6.59819    7.98975
       H    11.06905    6.59019    5.82618
       O    11.74984    6.61035    5.14403
      H1    11.22383    7.01503    4.35535
       H     9.69653    3.80019    5.73678
       O     9.78141    2.92989    6.12796
      H1    10.27879    3.15564    6.93101
       H    10.66318    6.37545   11.11711
       O    10.82188    7.33097   11.16233
      H1    10.01815    7.67553   10.75182
       H     7.92412    6.74498   10.54735
       O     7.89858    7.69005   10.29653
      H1     7.79175    8.17271   11.10646
       H     8.03917    7.79855    7.50184
       O     7.69883    6.97527    7.13544
      H1     7.56479    7.25710    6.23939
       H    12.68148    1.44625    5.87890
       O    13.00232    1.76821    5.02308
      H1    13.07064    0.98167    4.45404
       H     5.54581    3.87076    5.58900
       O     5.79721    4.81224    5.33581
      H1     6.74272    4.76042    5.21593
       H     7.46607    5.74696    8.57151
       O     7.92088    5.21847    9.24471
      H1     7.33980    4.47196    9.27668
       H     8.71184    5.86440    4.79996
       O     8.50198    4.91798    4.64083
      H1     8.33067    4.84735    3.73580
       H     9.39989    9.71974    6.62180
       O     8.84606    9.59490    7.46942
      H1     9.28871   10.27813    7.96583
       H     8.92945    1.14237    6.33745
       O     8.24197    0.44530    6.26996
      H1     7.95380    0.38740    5.30904

