120
frame 0 | Written by MDAnalysis XYZWriter (release 2.4.3)
       H     8.21954   -8.53123   -1.29095
       O     8.94569   -8.99006   -0.72680
      H1     8.52115   -9.88560   -0.55162
       H     9.88250   -7.66790    1.87443
       O    10.32944   -8.13967    2.57329
      H1    11.10652   -8.35708    1.95713
       H     8.00473  -13.21209    2.37071
       O     8.95168  -12.93408    2.52046
      H1     8.92967  -11.91518    2.75436
       H     6.84138   -4.49766    1.80135
       O     6.50969   -4.01669    1.03554
      H1     7.13247   -3.30416    0.78140
       H     7.76388   -8.92612    8.64656
       O     7.90166   -8.04967    9.07356
      H1     8.13214   -8.22529   10.01700
       H    11.18199  -12.81243    2.47446
       O    11.90621  -12.20230    2.33608
      H1    11.50726  -11.50323    2.91499
       H     9.38931   -9.57464    2.85296
       O     8.87315  -10.35323    3.08870
      H1     8.08924  -10.17005    3.58534
       H    11.62788  -11.62285    0.46699
       O    11.83348  -11.16597   -0.36369
      H1    11.16248  -11.50923   -0.97689
       H     6.85475  -11.09461    5.92507
       O     6.47739  -11.26458    5.01542
      H1     6.20559  -12.20841    4.97805
       H    12.60131   -8.05385   -0.71456
       O    12.65359   -7.44546   -1.48055
      H1    13.08127   -8.02688   -2.12350
       H     4.73586  -10.94579    4.95468
       O     3.82142  -10.81284    4.80265
      H1     3.66711  -11.19069    3.93360
       H     8.15601   -5.18151    2.77322
       O     7.25446   -5.28676    3.21041
      H1     7.01765   -6.22002    2.97644
       H    12.67181   -5.51843    5.13863
       O    12.53446   -6.28322    5.70872
      H1    11.60738   -6.41258    5.60799
       H    10.95251   -6.80689   -1.80240
       O    10.08463   -6.50309   -1.58077
      H1     9.75838   -7.04381   -0.88919
       H     3.42854   -8.10356   -0.45723
       O     3.74736   -8.62990    0.33134
      H1     3.32763   -8.12479    1.06507
       H    13.47141  -13.11585    2.89283
       O    14.21380  -13.64162    3.19121
      H1    14.04032  -13.99795    4.09341
       H     5.18371   -5.84958   -0.80994
       O     5.57937   -6.29408   -0.03742
      H1     5.96367   -5.46872    0.34990
       H    13.55610   -9.18496    1.32640
       O    12.67342   -8.89097    0.96380
      H1    12.41499   -9.68499    0.50341
       H     3.19264  -10.57874    1.60978
       O     3.53009  -11.38433    2.03320
      H1     4.18138  -11.71760    1.37399
       H     8.64114   -8.38831    6.31285
       O     9.12954   -9.21235    6.09692
      H1     9.99601   -8.97900    6.46697
       H    11.08620   -9.91480    4.89728
       O    11.12802  -10.63549    4.22176
      H1    10.16815  -10.76324    4.05456
       H     7.93893   -6.72516   -2.28644
       O     7.22669   -7.36882   -2.18691
      H1     6.71720   -7.04371   -1.42944
       H     5.54524  -12.01942   -0.02349
       O     5.05763  -12.82131    0.33466
      H1     4.49027  -13.05337   -0.39828
       H    12.31405   -8.81982    7.63575
       O    11.59872   -8.61276    6.99335
      H1    12.15457   -8.06723    6.42649
       H     7.85475  -11.59785    7.84974
       O     7.88246  -10.62258    7.82578
      H1     8.39321  -10.35136    7.04874
       H     5.97285  -13.45528    1.86895
       O     6.47995  -13.96948    2.49685
      H1     5.99125  -14.78729    2.60329
       H     9.60472  -12.87088   -3.29943
       O     9.07890  -12.52422   -2.59494
      H1     8.10825  -12.62367   -2.93333
       H    10.51075  -14.57326    4.91615
       O     9.68815  -14.19949    5.16366
      H1     9.47608  -13.96387    4.23850
       H     3.31385   -7.32036    3.53143
       O     3.99235   -8.05665    3.30454
      H1     3.92674   -8.66158    4.08849
       H     9.36521   -9.84000   -2.33631
       O     9.85871  -10.10377   -3.15041
      H1     9.59569  -11.05154   -3.16658
       H    12.66244  -14.12379    7.41189
       O    12.64800  -14.47906    6.50452
      H1    12.22581  -13.79915    5.96798
       H     6.86787  -10.04828    0.83280
       O     6.33413  -10.34201    0.09197
      H1     5.53919   -9.83026    0.14248
       H     9.49256  -13.21800    0.54845
       O    10.07777  -13.33278   -0.20005
      H1     9.44540  -13.25995   -0.95033
       H     9.98727   -4.49840    1.14062
       O     9.32225   -5.17516    1.39121
      H1     8.66858   -4.83842    0.74062
       H    12.70177  -13.28030   -0.47553
       O    12.81933  -14.01348   -1.06838
      H1    11.93587  -14.42842   -1.08185
       H    14.75594  -11.44627    1.22761
       O    15.01216  -10.85902    1.93503
      H1    15.69171  -11.37317    2.35420
       H     5.65090   -7.86077    2.76547
       O     6.46293   -7.69194    2.29660
      H1     6.15093   -7.50388    1.39535
       H     6.87970   -6.66507    6.49096
       O     7.57529   -7.18135    6.08675
      H1     7.88959   -6.68281    5.34775
       H    14.18950  -10.83888    4.93122
       O    14.65183  -10.23368    5.50780
      H1    15.54337  -10.26523    5.15870
       H    10.35641   -6.82844    3.71937
       O     9.92883   -6.26225    4.40461
      H1    10.23702   -5.33861    4.14908

