120
frame 5 | Written by MDAnalysis XYZWriter (release 2.4.3)
       H    17.94645    4.19973    6.17130
       O    17.96636    3.81586    7.11227
      H1    17.04251    3.67336    7.42881
       H    12.30610   -5.71115    3.30452
       O    13.04621   -5.66613    3.94789
      H1    13.78327   -6.10821    3.59959
       H    18.37203   -4.70906   11.33933
       O    18.34042   -3.81708   10.90316
      H1    18.93968   -3.31168   11.46173
       H    14.71345    2.86840    7.78981
       O    15.20662    3.57373    7.33679
      H1    14.78026    4.39920    7.58417
       H     9.92310   -3.77453    5.67129
       O    10.61083   -3.32101    5.14495
      H1    10.80410   -3.87712    4.35724
       H    11.71365   -3.58528    6.61820
       O    12.37866   -3.73765    7.29734
      H1    13.11917   -3.73596    6.75634
       H    14.74530    3.03246    5.38410
       O    14.82837    2.40869    4.60616
      H1    14.18021    2.72779    3.96977
       H    18.90520   -4.15612    6.24890
       O    18.42581   -3.44523    6.62929
      H1    17.71427   -3.74498    7.22564
       H    10.15320   -1.75174    4.87761
       O     9.65968   -0.91573    4.95838
      H1     8.74347   -1.22190    4.89760
       H    14.65149   -0.67936    8.55112
       O    15.10383   -1.25370    9.25636
      H1    15.56303   -1.99008    8.75766
       H    16.91885    1.53452    1.69661
       O    17.30015    2.30858    1.35854
      H1    18.23195    2.18039    1.21795
       H    16.24817   -6.45234    3.82878
       O    15.43817   -6.89085    4.09863
      H1    15.64438   -7.43753    4.93365
       H    13.75092   -3.81788    4.34280
       O    13.92686   -3.06401    4.90102
      H1    14.92547   -3.04339    4.94196
       H    14.78462    0.55199    0.02911
       O    14.01906    1.16726   -0.05939
      H1    14.33521    1.97417    0.38705
       H    16.45733   -0.08281    3.38501
       O    16.42338    0.05438    2.44981
      H1    15.99351   -0.66209    1.98065
       H    18.81683    2.18292    9.90381
       O    19.21704    2.92035    9.44690
      H1    18.69751    3.04225    8.64987
       H    11.81422   -1.64668    2.03013
       O    11.16394   -2.02434    1.46457
      H1    11.03711   -2.94314    1.73319
       H    16.57562   -1.39890    5.17313
       O    16.67032   -2.34516    4.96475
      H1    17.24102   -2.70424    5.69193
       H    13.69100    0.91676    7.85311
       O    13.98547    0.11501    7.35173
      H1    14.68942    0.44996    6.77101
       H    17.63271    0.87521    8.07823
       O    16.95485    0.83040    8.79516
      H1    16.44113    0.02281    8.78886
       H    15.76468   -4.48254    8.54422
       O    16.25435   -3.68308    8.70876
      H1    16.84248   -3.84575    9.43983
       H    15.43322   -0.34707   11.38118
       O    16.10918   -0.00903   12.05127
      H1    16.94992   -0.17064   11.59538
       H    16.90132   -3.08221    0.01048
       O    16.23623   -3.74133   -0.09359
      H1    15.55809   -3.39726   -0.69220
       H    18.86905    0.23114    6.71983
       O    18.61948    1.14647    6.56582
      H1    19.48962    1.57986    6.53235
       H    19.75745   -3.45381    3.85414
       O    18.83902   -3.53209    3.46358
      H1    18.18121   -3.03026    3.97657
       H    13.60809   -5.40507    7.81064
       O    14.46367   -5.73736    8.05391
      H1    14.67059   -6.34283    7.33627
       H    12.42263    1.45644    1.13993
       O    11.76692    1.89659    1.66502
      H1    11.51059    2.73177    1.25802
       H    13.34156   -1.50110    3.98062
       O    13.04187   -1.02856    3.21362
      H1    12.71824   -0.20682    3.56268
       H    11.83224   -6.88117    6.71081
       O    12.61509   -7.10967    6.14414
      H1    12.60819   -6.54189    5.39533
       H    15.39118   -6.94365    0.51869
       O    14.71879   -6.27444    0.64636
      H1    15.21998   -5.49344    0.56253
       H    11.77559    0.26838    7.38054
       O    10.85119    0.27098    7.47238
      H1    10.51481   -0.27791    6.74479
       H    15.04091   -2.68713    0.86615
       O    14.81054   -1.73403    1.04275
      H1    14.06372   -1.73339    1.64926
       H    18.96903   -6.84454    2.74638
       O    18.46917   -6.30509    3.41723
      H1    18.47064   -5.44422    2.94906
       H    19.34685   -2.73400    0.23795
       O    19.03757   -3.52968    0.74272
      H1    18.90388   -3.11041    1.62605
       H    19.41646   -8.43328    6.23753
       O    18.90962   -8.00991    6.90751
      H1    19.24415   -7.12001    6.86936
       H    17.50255    3.84750    2.01205
       O    17.47874    4.82253    2.16952
      H1    17.57256    5.02342    3.10765
       H    17.08678    0.64704    5.89032
       O    16.30059    0.32707    5.48419
      H1    15.74802    1.11498    5.32633
       H    10.49240    0.33070    4.29966
       O    10.99670    1.19724    4.14747
      H1    10.99957    1.25103    3.16111
       H    11.59198   -2.39180    9.79922
       O    12.40410   -1.89757   10.07189
      H1    13.17971   -1.97451    9.47446
       H    12.16941    2.54450    8.50824
       O    12.87202    2.01234    8.96366
      H1    12.53741    1.58903    9.76018

