120
frame 0 | Written by MDAnalysis XYZWriter (release 2.4.3)
       H   -19.53722   17.31447  -17.71017
       O   -18.66409   17.63485  -17.94918
      H1   -18.86047   18.38704  -18.53512
       H   -12.49464   10.19318  -13.86066
       O   -12.15017   10.65823  -14.61596
      H1   -12.68145   11.41420  -14.74164
       H   -11.33229   12.04974  -11.88614
       O   -12.08735   12.41190  -11.46931
      H1   -12.64609   12.40699  -12.25411
       H   -14.12838   13.55914  -13.68580
       O   -13.91113   12.58857  -13.57874
      H1   -14.78869   12.18277  -13.55242
       H   -14.73154   16.03449  -12.89529
       O   -15.09599   16.45970  -12.06019
      H1   -15.59725   15.86252  -11.51360
       H   -10.03627   15.66109  -10.24743
       O   -10.68486   15.56933  -10.96227
      H1   -10.40907   16.02745  -11.77329
       H    -8.32624   16.32494  -18.40511
       O    -7.46182   16.76316  -18.45784
      H1    -7.06698   16.55246  -19.32147
       H    -9.39707   10.57766  -16.16492
       O    -9.66432   11.21620  -15.49185
      H1   -10.29774   10.76566  -14.96445
       H   -13.72085   10.28580  -11.92089
       O   -13.25984    9.56628  -12.37183
      H1   -12.38727    9.52907  -11.98089
       H   -17.10173   15.77834  -13.45598
       O   -17.57331   16.03757  -14.26571
      H1   -17.02510   16.62649  -14.81081
       H   -11.12083   16.12764  -14.53797
       O   -11.48164   15.62388  -15.30746
      H1   -10.79388   15.04655  -15.66755
       H   -14.47508   10.48916  -19.10599
       O   -15.37861   10.25329  -19.49206
      H1   -15.35119    9.27141  -19.71499
       H   -17.26570   10.61553  -18.51071
       O   -17.92717   10.76035  -17.82654
      H1   -17.53839   10.18314  -17.11820
       H   -10.91986   17.77347  -12.90968
       O   -10.71730   16.91253  -13.30930
      H1    -9.76186   16.80360  -13.33639
       H   -16.82818   14.01454  -16.64977
       O   -17.46185   13.81745  -15.89124
      H1   -17.49644   14.58578  -15.30309
       H   -13.12332   15.30310  -14.43604
       O   -14.13270   15.30794  -14.34050
      H1   -14.40487   15.16135  -15.24462
       H   -11.76247    9.97182  -16.31246
       O   -11.63173   10.03070  -17.32152
      H1   -11.51517    9.12827  -17.67240
       H   -17.56311   14.47334  -10.61170
       O   -16.70931   14.08393  -10.76021
      H1   -16.50249   13.59561   -9.86037
       H    -8.39651   18.42740  -16.12655
       O    -8.99865   17.77702  -15.71799
      H1    -9.71327   18.23486  -15.29862
       H   -12.37270   16.19104  -10.63304
       O   -12.99465   16.77463  -10.17106
      H1   -13.85450   16.48950  -10.55004
       H   -13.02925   15.00440  -19.67118
       O   -13.58459   15.58267  -19.13784
      H1   -14.15621   16.11208  -19.72466
       H   -12.74129   16.74264  -17.82013
       O   -11.95900   17.21232  -17.48873
      H1   -11.95398   16.80858  -16.59319
       H   -12.55926   13.06516  -17.42483
       O   -12.84652   13.13875  -16.50245
      H1   -12.10374   13.31831  -16.00105
       H   -18.69048    8.65504  -15.68455
       O   -17.78831    8.68994  -15.94637
      H1   -17.33806    8.66742  -15.02454
       H    -8.75213   14.19825  -16.30056
       O    -9.59954   13.88937  -16.63050
      H1    -9.61232   13.01613  -16.24236
       H   -12.24011   10.85837  -18.65270
       O   -12.84511   11.39411  -19.17545
      H1   -12.26733   12.06980  -19.57003
       H   -10.70539   15.98678  -18.73800
       O   -10.35328   16.01853  -19.64628
      H1   -10.55801   16.88691  -20.10871
       H   -15.94576   11.19389  -15.01645
       O   -16.50273   11.66414  -14.36365
      H1   -16.92271   12.40127  -14.93048
       H   -19.36910   13.06035  -16.82122
       O   -19.78073   12.84540  -17.66303
      H1   -19.16160   12.13622  -17.92781
       H   -17.40913   17.86457  -16.54537
       O   -16.65302   18.05851  -15.96105
      H1   -16.06470   18.60830  -16.48759
       H   -13.70665   18.49154  -15.84088
       O   -13.50954   18.22649  -14.93791
      H1   -13.53014   17.26301  -14.99552
       H   -14.09239   14.20201  -16.64459
       O   -14.87847   14.76680  -16.94194
      H1   -14.59480   15.03340  -17.82145
       H   -13.53612   10.35743  -17.00797
       O   -14.27775   10.60723  -16.43119
      H1   -14.02194   11.53033  -16.38928
       H   -17.76202   19.29442  -15.22940
       O   -18.41707   19.79752  -14.72362
      H1   -18.41887   19.31362  -13.87595
       H   -15.14987   18.64125  -12.45990
       O   -15.00534   19.48367  -12.02789
      H1   -15.49129   19.48305  -11.22084
       H   -15.44969    6.97497  -16.47624
       O   -14.48174    7.15839  -16.46696
      H1   -14.36761    7.76925  -15.73993
       H   -15.83845    8.31021  -13.16341
       O   -16.19279    8.86429  -13.87315
      H1   -16.24488    9.82067  -13.66379
       H   -10.92566   19.90080  -16.59314
       O   -11.29452   19.85272  -17.50211
      H1   -11.64171   18.94493  -17.62003
       H   -16.92743   15.86967  -19.80303
       O   -16.83577   16.81790  -19.60399
      H1   -17.46793   17.09425  -18.93522
       H   -15.55364   10.21566  -10.95482
       O   -15.32309   11.15778  -10.97536
      H1   -16.03897   11.64377  -11.36955

