120
frame 0 | Written by MDAnalysis XYZWriter (release 2.4.3)
       H    14.61272   -9.64140  -12.84084
       O    14.58104   -9.28618  -13.71301
      H1    15.11752   -8.48547  -13.68149
       H    14.92704   -8.03284   -7.17341
       O    15.09609   -8.99814   -7.02396
      H1    14.69396   -9.17788   -6.16533
       H    16.56810   -6.74880   -4.26871
       O    16.54715   -7.02939   -3.32346
      H1    17.35249   -6.62743   -3.01696
       H    13.62986  -10.46770   -9.05475
       O    14.35740  -11.02434   -8.70189
      H1    14.75226  -10.34487   -8.07999
       H    14.48214   -5.14848   -5.56707
       O    13.96775   -5.34057   -6.37506
      H1    13.12572   -5.64656   -6.03276
       H    19.48289   -6.27084  -12.71945
       O    19.08802   -6.15568  -11.84542
      H1    18.65480   -5.25941  -11.87432
       H    17.83160  -15.28705   -5.99426
       O    18.45542  -15.65137   -5.32150
      H1    18.40767  -16.60135   -5.42210
       H    12.97520   -8.75717   -4.20585
       O    13.67927   -9.13258   -3.58292
      H1    13.24306   -9.99878   -3.39098
       H    13.79706   -4.37832   -8.07426
       O    13.41412   -4.17110   -8.93493
      H1    12.57762   -4.54911   -8.82675
       H    18.25961   -6.42107   -5.85714
       O    17.45144   -6.94772   -5.86846
      H1    16.98565   -6.51293   -6.61197
       H    11.83254   -9.19490   -9.41426
       O    12.29097   -9.78748  -10.05299
      H1    11.66572  -10.52179  -10.09701
       H    19.28546   -3.04316   -6.26115
       O    18.42516   -3.41314   -6.53581
      H1    17.87643   -2.60718   -6.71333
       H    14.20994   -3.77539  -10.84201
       O    14.68190   -3.83396  -11.71198
      H1    14.09847   -3.32850  -12.29920
       H    16.74906  -14.15889  -10.22559
       O    17.59296  -13.87807   -9.85785
      H1    18.08501  -14.70154  -10.02643
       H    18.67197  -10.43350  -12.87537
       O    18.29107  -11.23590  -12.50558
      H1    18.36473  -11.01200  -11.57353
       H    17.21625  -12.39734   -7.30257
       O    17.58886  -11.67702   -7.92209
      H1    17.85678  -12.15137   -8.73713
       H    16.40140  -13.26499   -3.55806
       O    15.53454  -12.83493   -3.70398
      H1    15.84985  -11.92497   -3.83549
       H    12.16758  -11.57570   -7.05307
       O    11.29955  -11.15122   -6.87033
      H1    11.58834  -10.31400   -6.41394
       H    18.82297  -14.21852   -4.14502
       O    18.84772  -13.34369   -3.68639
      H1    19.35881  -12.87489   -4.30862
       H    15.62034  -14.03796  -14.12785
       O    15.34599  -14.68439  -13.47047
      H1    15.66958  -15.46565  -13.92039
       H    16.37111   -6.20818   -9.30748
       O    16.75470   -6.08152   -8.42689
      H1    17.50358   -5.56469   -8.60217
       H    18.87226   -4.18153   -8.01250
       O    18.76754   -4.36596   -8.99654
      H1    19.36089   -5.14387   -9.04383
       H    17.60950  -10.16795   -6.47518
       O    17.96880   -9.43275   -5.98238
      H1    17.48985   -8.57255   -6.13476
       H    17.71135   -2.91610  -11.49583
       O    17.59494   -3.70035  -12.08579
      H1    16.64955   -3.72503  -12.25080
       H    15.39299   -3.43204   -9.07745
       O    16.27490   -3.00211   -9.09925
      H1    16.93437   -3.68808   -9.29392
       H    16.51228   -6.36779  -13.49761
       O    16.71816   -7.04483  -12.81670
      H1    17.54577   -6.68487  -12.42710
       H    15.11074  -15.85848  -10.73874
       O    15.08678  -14.87947  -10.71199
      H1    15.02927  -14.61049  -11.69791
       H    14.59690   -5.74954  -14.96754
       O    15.54416   -5.69729  -14.85161
      H1    15.88031   -6.33125  -15.51230
       H    15.70132  -10.71800  -14.19346
       O    16.39765  -10.86145  -14.82721
      H1    17.03522  -11.30252  -14.22303
       H    17.07249  -10.16520   -9.11949
       O    17.40326   -9.61265   -9.90950
      H1    17.94600   -8.97099   -9.47574
       H    18.20831   -9.04859  -14.90403
       O    18.71845   -8.81320  -14.08308
      H1    18.05096   -8.43469  -13.50352
       H    16.81205   -9.53777   -4.40011
       O    16.33056  -10.12471   -3.82235
      H1    15.70432   -9.44866   -3.50246
       H    15.85519  -14.51217   -7.41830
       O    16.80224  -14.31444   -7.36531
      H1    17.00924  -14.05692   -8.26005
       H    12.27475   -9.74021  -14.52631
       O    11.66958   -9.14965  -14.09717
      H1    12.30495   -8.53138  -13.69241
       H    13.66587  -12.77870   -8.24122
       O    13.34149  -13.57800   -7.82863
      H1    13.85143  -13.80601   -7.07135
       H    19.14594  -14.68420  -13.70771
       O    18.84959  -14.02738  -14.32320
      H1    18.54614  -13.31284  -13.74895
       H    18.91799   -9.50357   -2.65853
       O    18.38126   -9.81746   -1.94921
      H1    17.67482  -10.14367   -2.50354
       H    16.37281  -11.27677  -11.76248
       O    15.43203  -11.21432  -11.68348
      H1    15.25658  -11.23002  -10.77866
       H    15.75615   -7.10111  -10.99855
       O    15.33723   -7.49841  -10.24012
      H1    15.79480   -8.34016  -10.26732
       H    13.63528   -7.19769  -11.12139
       O    12.84225   -7.44091  -11.58394
      H1    12.64748   -8.29258  -11.24217

