120
frame 0 | Written by MDAnalysis XYZWriter (release 2.4.3)
       H    15.25458   16.76546   -2.24426
       O    15.67637   17.68221   -2.28722
      H1    16.66957   17.52524   -2.12848
       H     8.43657   15.73305   -4.46857
       O     9.19132   15.73227   -3.87630
      H1     8.95116   16.28139   -3.13651
       H     7.28804   15.66695    5.41969
       O     7.64446   15.20365    4.66187
      H1     7.82456   14.32135    5.02145
       H    11.89285   14.75147    3.46431
       O    10.96432   14.70102    3.29661
      H1    10.63847   15.45945    3.73918
       H    13.77522   18.51134   -3.17537
       O    12.81109   18.30988   -3.05563
      H1    12.85775   17.77776   -2.26688
       H    14.60875   14.46591    1.84506
       O    14.78502   15.19103    2.49914
      H1    15.35801   14.73513    3.09774
       H    11.65111   17.82778    3.05228
       O    10.93509   17.52517    3.63483
      H1    11.30315   17.36999    4.51519
       H     7.12389   13.81247    2.04993
       O     7.26987   12.86259    2.06204
      H1     6.84342   12.67108    2.88322
       H    15.09268   18.69687   -0.90486
       O    14.72366   19.21879   -0.19130
      H1    15.49890   19.75501    0.07673
       H    13.64032   14.68068   -0.43903
       O    12.76340   14.59871    0.01242
      H1    12.59167   13.65398   -0.06160
       H    12.23591   19.30287    0.97746
       O    12.56251   18.43870    1.39817
      H1    13.41669   18.32801    0.93596
       H    10.80865   12.63747   -0.88045
       O    11.12198   11.89627   -0.33428
      H1    10.58668   12.08432    0.48406
       H    18.01523   18.53884   -0.95954
       O    18.22460   17.72598   -1.48642
      H1    17.96087   17.00285   -0.86869
       H    11.44549   15.98797    6.63887
       O    11.87046   16.63501    6.03994
      H1    11.73171   17.41069    6.62977
       H    17.94236   14.59063    2.28642
       O    18.56133   15.22656    1.90168
      H1    18.10355   16.03424    2.11043
       H    13.72676   12.52731    1.92828
       O    14.42515   12.53084    1.22645
      H1    15.07250   12.03004    1.70946
       H    19.38081   17.44340    5.66637
       O    19.29507   16.75634    4.98903
      H1    18.38265   16.98507    4.67455
       H     9.19817   15.25280    1.04304
       O     8.82852   16.11625    1.20976
      H1     9.56301   16.59754    1.63664
       H    14.44464   12.09924   -0.68477
       O    14.67691   11.60735   -1.46831
      H1    14.07008   10.84921   -1.36760
       H     9.36256   19.75541   -1.97742
       O     9.31990   19.64709   -1.02741
      H1     9.26133   18.66190   -1.13155
       H    11.13071   14.15090   -3.75060
       O    11.58685   13.27715   -3.95044
      H1    10.90795   12.75771   -4.35418
       H     5.89473   17.63326    3.11522
       O     5.73606   18.57407    3.39209
      H1     5.66603   18.41655    4.38262
       H     8.47073   13.95469   -1.57036
       O     9.36248   14.07070   -1.14511
      H1     9.74272   14.70339   -1.85424
       H    18.50110   13.99256   -1.09295
       O    18.06353   14.81469   -0.81814
      H1    18.32824   14.81911    0.10714
       H    13.96044   17.84029    8.25417
       O    14.59619   17.82449    7.50153
      H1    15.36313   17.50094    7.96888
       H     5.37666   16.39883   -1.93714
       O     6.37492   16.28029   -1.95561
      H1     6.54237   16.91463   -2.73158
       H    16.68756   17.40965    3.16801
       O    16.86240   17.53063    4.14954
      H1    16.06019   17.12634    4.55401
       H     4.60956   18.20390   -0.49212
       O     5.51080   18.15570   -0.12041
      H1     6.00831   17.46239   -0.55910
       H     9.01863   12.84438    2.05074
       O     9.88682   12.51257    2.10534
      H1    10.24597   13.32130    2.55983
       H    10.61326   16.56176   -5.01355
       O    11.26263   17.12193   -5.33904
      H1    11.70460   17.22536   -4.47117
       H    14.34409   16.40422    6.13601
       O    14.91399   16.00958    5.43161
      H1    14.28496   15.44495    4.89917
       H     6.79675   15.63822    3.02753
       O     6.35167   15.86627    2.22390
      H1     7.09958   16.19450    1.70122
       H    15.53595   14.05138   -4.64147
       O    15.08957   14.84288   -4.39365
      H1    14.32748   14.90033   -5.00804
       H    15.81234   14.74618   -1.45163
       O    14.85300   15.06628   -1.65616
      H1    14.83073   14.69073   -2.54082
       H    10.46693   18.97931    7.29714
       O    11.36973   18.77743    7.61481
      H1    11.32649   19.29758    8.46684
       H    13.65606   13.81922    5.68936
       O    13.29252   13.87220    4.73220
      H1    12.68624   13.13192    4.80251
       H    12.36532   16.19135   -0.34513
       O    12.01222   17.00646   -0.74401
      H1    12.19721   17.65029    0.00676
       H     6.88202   18.44550   -4.94699
       O     6.38414   18.25378   -4.19399
      H1     6.33770   19.13280   -3.79189
       H     9.13389   16.53370   -0.65596
       O     9.42803   17.00772   -1.45971
      H1    10.41910   16.99196   -1.43297
       H    15.66036   16.47199    1.42088
       O    16.30842   17.17084    1.35412
      H1    15.74087   17.90808    1.16513

