120
frame 0 | Written by MDAnalysis XYZWriter (release 2.4.3)
       H    11.57653  -13.17340   -4.22231
       O    10.76888  -13.20212   -4.74891
      H1    10.87376  -12.43933   -5.29914
       H     7.46129   -3.58792   -3.01934
       O     6.89573   -4.29177   -3.44052
      H1     6.43279   -3.78898   -4.15317
       H     8.21954   -8.53123   -1.29095
       O     8.94569   -8.99006   -0.72680
      H1     8.52115   -9.88560   -0.55162
       H     5.73250  -14.80019   -4.18527
       O     5.03164  -14.16858   -4.29330
      H1     5.51500  -13.33709   -4.41482
       H     0.42663  -12.75344   -4.38498
       O     1.28650  -13.16860   -4.37808
      H1     0.91714  -14.05290   -4.21322
       H     9.21448  -11.99128   -7.14238
       O     8.33997  -12.09366   -6.64787
      H1     7.75599  -11.60287   -7.23304
       H     2.38483   -4.79764   -4.40442
       O     3.23430   -4.46580   -4.66057
      H1     3.64783   -4.39165   -3.76316
       H     5.22698   -5.02916   -2.79936
       O     4.47679   -5.16443   -2.24170
      H1     4.08465   -6.00835   -2.49575
       H     3.61665  -12.25354   -8.62817
       O     2.69255  -12.06919   -8.34363
      H1     2.83319  -11.95778   -7.38716
       H     7.52729   -5.80600   -7.36358
       O     7.62688   -4.82731   -7.61745
      H1     8.34240   -4.56025   -7.03420
       H     3.36238   -7.47671   -6.18156
       O     2.78589   -7.51337   -6.96261
      H1     3.16895   -8.24729   -7.49820
       H    10.95251   -6.80689   -1.80240
       O    10.08463   -6.50309   -1.58077
      H1     9.75838   -7.04381   -0.88919
       H     3.42854   -8.10356   -0.45723
       O     3.74736   -8.62990    0.33134
      H1     3.32763   -8.12479    1.06507
       H     4.11195  -15.33569   -0.76646
       O     4.89289  -15.57613   -0.24329
      H1     5.39627  -14.78378    0.01075
       H     5.46521   -6.99589   -5.34231
       O     4.72780   -7.63968   -5.16897
      H1     5.19931   -8.40697   -4.93196
       H     5.18371   -5.84958   -0.80994
       O     5.57937   -6.29408   -0.03742
      H1     5.96367   -5.46872    0.34990
       H     3.19264  -10.57874    1.60978
       O     3.53009  -11.38433    2.03320
      H1     4.18138  -11.71760    1.37399
       H     1.04531   -9.06478   -3.68965
       O     1.04913   -8.95508   -4.60124
      H1     1.79612   -9.44290   -4.92573
       H     7.93893   -6.72516   -2.28644
       O     7.22669   -7.36882   -2.18691
      H1     6.71720   -7.04371   -1.42944
       H     5.54524  -12.01942   -0.02349
       O     5.05763  -12.82131    0.33466
      H1     4.49027  -13.05337   -0.39828
       H     1.29721   -8.48297   -7.17289
       O     0.57713   -8.84982   -7.68237
      H1     1.15216   -9.12529   -8.43432
       H     3.97159  -10.80251   -5.00270
       O     3.16746  -10.69626   -5.51259
      H1     2.45316  -11.12865   -5.04946
       H     4.37480  -15.63044   -5.37511
       O     3.62929  -16.12887   -5.85920
      H1     3.04966  -15.41598   -6.15677
       H     8.51287   -9.67489   -4.40124
       O     7.85059   -9.76437   -5.08015
      H1     8.19015  -10.39388   -5.77136
       H    11.03938   -8.78288   -4.66728
       O    11.68329   -8.63661   -5.36761
      H1    11.63487   -7.70781   -5.57664
       H     9.60472  -12.87088   -3.29943
       O     9.07890  -12.52422   -2.59494
      H1     8.10825  -12.62367   -2.93333
       H     2.67050   -7.69652   -2.45975
       O     3.63529   -7.73239   -2.59215
      H1     3.69592   -7.98523   -3.47904
       H     9.36521   -9.84000   -2.33631
       O     9.85871  -10.10377   -3.15041
      H1     9.59569  -11.05154   -3.16658
       H     4.27977   -6.76713   -7.71978
       O     4.96093   -6.14948   -8.00336
      H1     4.43256   -5.33181   -8.06854
       H     6.23788   -9.40623   -3.10221
       O     5.48274   -9.90542   -3.46333
      H1     4.86662   -9.72760   -2.74825
       H     6.86787  -10.04828    0.83280
       O     6.33413  -10.34201    0.09197
      H1     5.53919   -9.83026    0.14248
       H     9.49256  -13.21800    0.54845
       O    10.07777  -13.33278   -0.20005
      H1     9.44540  -13.25995   -0.95033
       H     6.67131  -11.41648   -4.53108
       O     6.89520  -12.30646   -4.32608
      H1     7.60659  -12.49556   -4.91241
       H     3.58601   -9.25906   -9.37710
       O     3.75219   -9.59019   -8.42294
      H1     3.41287  -10.50086   -8.25908
       H     4.00137  -12.77876   -2.81814
       O     3.43352  -12.11819   -2.40489
      H1     2.66553  -12.64191   -2.19553
       H     6.55770  -12.72266   -9.38969
       O     5.97282  -12.78241   -8.64544
      H1     6.35060  -13.53403   -8.26885
       H     7.15073   -9.97340   -8.83143
       O     6.90475   -9.95062   -7.94672
      H1     5.96427  -10.00844   -8.16151
       H     5.65090   -7.86077    2.76547
       O     6.46293   -7.69194    2.29660
      H1     6.15093   -7.50388    1.39535
       H     6.55095   -7.74853   -7.35443
       O     7.28098   -7.43308   -6.83645
      H1     7.63625   -8.17722   -6.43278
       H     0.95020   -9.10285   -1.33892
       O     1.07902   -8.33445   -1.89854
      H1     0.14291   -7.94198   -1.92481

