120
frame 0 | Written by MDAnalysis XYZWriter (release 2.4.3)
       H    17.93490   -8.79221   16.26886
       O    18.88594   -8.88923   16.57065
      H1    19.28465   -8.90046   15.64526
       H    11.36184   -2.00793   16.19162
       O    10.59756   -2.01609   16.80832
      H1    10.57331   -2.95882   17.02608
       H    11.91091   -4.81068   13.90498
       O    12.55315   -4.72527   14.59216
      H1    11.97006   -4.60325   15.39381
       H    19.55572   -5.63535   15.43225
       O    19.14245   -6.10522   16.19235
      H1    19.37477   -7.04181   15.95783
       H    15.23546   -6.74670   19.33241
       O    14.88719   -5.95134   18.87304
      H1    15.30369   -5.86386   18.07296
       H     9.12267   -1.29248   19.57848
       O     8.87352   -1.25746   18.65215
      H1     9.69696   -1.49317   18.17426
       H    16.21273  -12.81881   17.61511
       O    16.45496  -12.86614   18.53995
      H1    17.16032  -12.14143   18.52025
       H    13.71599  -12.01125   13.44281
       O    14.60044  -12.26877   13.16933
      H1    14.92462  -12.73835   13.89623
       H     8.43156   -6.90111   17.35806
       O     8.89357   -6.23998   17.93939
      H1     8.70678   -6.61009   18.79946
       H     7.99135   -3.22432   19.03296
       O     7.67280   -4.06030   19.43472
      H1     8.40918   -4.61341   19.19456
       H    10.55705   -6.22882   11.60736
       O    10.41263   -5.60189   12.38135
      H1     9.52014   -5.29161   12.23108
       H    18.38210   -6.09445   18.05957
       O    18.31655   -6.48562   19.01420
      H1    17.74618   -5.75198   19.38072
       H    16.96093   -5.27256   13.03648
       O    16.71322   -4.72357   12.28060
      H1    17.06617   -3.87155   12.63125
       H     9.01085   -9.68673   18.45904
       O     8.26390   -9.16623   18.82879
      H1     8.38385   -9.27557   19.79831
       H    16.79184   -1.72059   19.36888
       O    16.38485   -2.27303   18.69530
      H1    16.53067   -3.14298   19.08228
       H    16.96034   -7.29372   12.56590
       O    16.90153   -7.46942   13.51514
      H1    16.00697   -7.72893   13.52787
       H    14.58714   -0.40378   12.20647
       O    14.38077   -1.14134   11.61099
      H1    15.06390   -1.80410   11.92766
       H    16.35415  -11.71930   13.71839
       O    17.29089  -11.56304   13.83051
      H1    17.54657  -10.88970   13.21881
       H    15.73779   -9.64930   19.61432
       O    15.96141   -8.91025   19.02575
      H1    16.95067   -8.93575   18.93328
       H    17.22865    1.03205   16.08551
       O    17.03741    0.29546   16.73472
      H1    17.91416    0.00420   17.06956
       H    11.54556    0.31697   14.51936
       O    12.38079   -0.08100   14.21399
      H1    13.08350    0.52056   14.49297
       H    15.92102    1.24578   17.63764
       O    15.05815    1.50473   17.97862
      H1    14.75180    0.59925   18.10930
       H    15.85740   -6.39471   15.58349
       O    16.37611   -5.79084   16.20748
      H1    17.35007   -6.08052   16.19269
       H    15.98754   -9.49090   17.42029
       O    15.96883   -9.72358   16.51359
      H1    15.58744   -8.91295   16.16623
       H    10.58825   -6.93606   13.35292
       O    11.06189   -7.69768   13.87430
      H1    10.41832   -7.93560   14.51470
       H    11.32386   -5.02449   17.82522
       O    10.96516   -4.87155   16.98373
      H1    10.14148   -5.36097   17.14809
       H    14.80772   -2.22434   15.77000
       O    15.73660   -1.94566   15.54558
      H1    15.87572   -1.08593   15.97348
       H    12.79376   -3.06991   15.01487
       O    12.96096   -2.31452   15.59775
      H1    12.70257   -1.57991   15.01284
       H    18.67839  -10.69135   17.33348
       O    18.69307  -11.22181   18.11287
      H1    18.43991  -10.59127   18.80730
       H    17.70046   -5.69938   11.22262
       O    18.15024   -6.54990   10.97602
      H1    18.49038   -6.33504   10.09726
       H    11.78039   -6.82661   18.15046
       O    12.27946   -7.17410   18.92307
      H1    13.19239   -7.07227   18.69353
       H    10.33357   -8.55494   12.51817
       O     9.45571   -8.94015   12.26141
      H1     9.68408   -9.52458   11.51426
       H    15.75633  -11.54337   16.16745
       O    15.71386  -12.54638   16.00460
      H1    14.71425  -12.78631   15.96080
       H    13.75446   -9.19698    9.94498
       O    13.63236   -9.27550   10.89976
      H1    13.49600   -8.34076   11.22541
       H    13.68157   -7.70707   14.92996
       O    14.47251   -7.13435   14.81761
      H1    14.18208   -6.28401   14.50980
       H    11.52789   -9.59287   18.42441
       O    11.21326   -9.81127   17.54709
      H1    10.83348  -10.73183   17.68713
       H     8.80568   -1.16175   15.28496
       O     8.35111   -1.98919   15.09561
      H1     8.48795   -2.29112   15.99288
       H    13.41555   -1.72302   17.84152
       O    13.65940   -1.29566   18.64755
      H1    14.58208   -1.56606   18.88524
       H    18.74128   -2.68110   13.18445
       O    17.82861   -2.52617   13.35267
      H1    17.74436   -2.52453   14.33965
       H    17.56102   -3.86126   16.37190
       O    18.24894   -3.12442   16.24397
      H1    17.79081   -2.36811   16.59518

