120
frame 0 | Written by MDAnalysis XYZWriter (release 2.4.3)
       H     8.30774   10.06489    2.27736
       O     7.88819   10.03873    3.17162
      H1     8.69219   10.15711    3.72002
       H     7.28804   15.66695    5.41969
       O     7.64446   15.20365    4.66187
      H1     7.82456   14.32135    5.02145
       H    10.54473   10.51309   11.81305
       O     9.73330   10.35289   12.33996
      H1    10.02467    9.49345   12.71913
       H    12.11617    8.69780    7.76960
       O    11.54322    8.34338    8.44627
      H1    11.11991    7.57378    8.09452
       H     7.12389   13.81247    2.04993
       O     7.26987   12.86259    2.06204
      H1     6.84342   12.67108    2.88322
       H    13.30857    8.78771    9.82762
       O    13.02098    8.87002   10.73247
      H1    12.17715    8.29802   10.72333
       H    12.35097    6.64579    8.63571
       O    13.14337    6.06177    8.65993
      H1    13.68728    6.44483    9.42686
       H     8.44944   12.55326    6.54987
       O     9.02758   12.87009    5.87823
      H1     9.59914   13.47670    6.43466
       H     6.34980    8.64475    9.25904
       O     5.69946    9.23064    8.91218
      H1     4.94460    9.32120    9.61671
       H    11.62952    4.97435    4.84509
       O    11.60257    4.23424    4.21854
      H1    11.73088    3.40977    4.75293
       H     9.36501    5.67857    7.70750
       O    10.19799    5.51061    7.29102
      H1    10.61318    4.90874    7.88610
       H    10.08257   11.25880    5.20046
       O    10.08731   10.30072    5.07977
      H1    10.92456   10.23902    4.58245
       H     7.95882    8.44958    3.59434
       O     8.24153    7.53417    3.87189
      H1     7.73371    6.97546    3.20559
       H    13.16553    8.12919    5.64391
       O    13.58773    8.71370    6.27920
      H1    14.05420    8.09408    6.80490
       H     8.91325   13.54998    9.71771
       O     9.22007   14.50598    9.86593
      H1     8.41534   15.06379    9.82677
       H     6.62917   15.98890    7.60046
       O     7.06799   15.20511    7.93131
      H1     6.49779   14.52738    7.55553
       H    10.55298    7.06361    2.39620
       O    10.59760    7.98893    2.76731
      H1     9.68040    7.93363    3.04664
       H     5.21194   12.80134    7.71543
       O     4.31967   13.13610    7.77036
      H1     4.14110   13.55730    6.87952
       H    10.21026   11.94449    9.65891
       O     9.25960   12.04521    9.37075
      H1     8.84290   11.87764   10.25181
       H    10.11408   14.69499    8.09178
       O    10.68331   14.55279    7.33271
      H1    11.50084   14.24219    7.76421
       H    11.48538   11.60734    2.67310
       O    12.28053   11.18691    3.09939
      H1    12.51503   10.55329    2.39438
       H     6.70246   11.10988    7.64949
       O     6.72532   11.93056    7.12014
      H1     6.62183   11.59478    6.25662
       H     4.78232    7.80835    5.90806
       O     5.05070    8.75426    5.87055
      H1     5.39598    8.97950    6.74451
       H     5.31961    8.74034    4.18494
       O     5.30484    8.36920    3.25035
      H1     4.63699    7.68498    3.47612
       H     4.81845    7.87306    8.24925
       O     3.92503    7.53562    8.06844
      H1     4.18412    6.59819    7.98975
       H     5.97077   11.78856   10.67017
       O     6.90347   11.88794   10.78508
      H1     7.09993   11.86086    9.81065
       H    11.06905    6.59019    5.82618
       O    11.74984    6.61035    5.14403
      H1    11.22383    7.01503    4.35535
       H    10.66318    6.37545   11.11711
       O    10.82188    7.33097   11.16233
      H1    10.01815    7.67553   10.75182
       H    14.71748   11.25721    7.72689
       O    13.89090   10.90640    8.16460
      H1    13.63123   10.27744    7.49562
       H    13.66176   12.69683    7.77619
       O    13.50839   13.55032    7.40132
      H1    14.12992   14.13233    7.86790
       H     7.92412    6.74498   10.54735
       O     7.89858    7.69005   10.29653
      H1     7.79175    8.17271   11.10646
       H     8.03917    7.79855    7.50184
       O     7.69883    6.97527    7.13544
      H1     7.56479    7.25710    6.23939
       H     5.54581    3.87076    5.58900
       O     5.79721    4.81224    5.33581
      H1     6.74272    4.76042    5.21593
       H     7.46607    5.74696    8.57151
       O     7.92088    5.21847    9.24471
      H1     7.33980    4.47196    9.27668
       H    13.65606   13.81922    5.68936
       O    13.29252   13.87220    4.73220
      H1    12.68624   13.13192    4.80251
       H     3.36856   10.66283    5.13090
       O     2.42278   10.87073    5.02927
      H1     2.36626   11.16115    4.07782
       H     8.71184    5.86440    4.79996
       O     8.50198    4.91798    4.64083
      H1     8.33067    4.84735    3.73580
       H     9.39989    9.71974    6.62180
       O     8.84606    9.59490    7.46942
      H1     9.28871   10.27813    7.96583
       H    12.32594   12.07887   10.97744
       O    11.64930   11.37333   10.73164
      H1    12.27292   10.59943   10.51900
       H     5.21591   11.25145    3.84942
       O     5.92972   11.67024    4.38159
      H1     6.66178   11.14728    4.02349

