120
frame 0 | Written by MDAnalysis XYZWriter (release 2.4.3)
       H    -6.39475   -7.70460  -11.97379
       O    -6.68642   -8.05831  -11.12658
      H1    -6.01781   -7.62975  -10.56123
       H    -5.82770   -8.77254   -4.62252
       O    -6.40039   -8.92994   -3.86203
      H1    -7.09675   -8.28107   -4.01823
       H   -11.71998   -9.99617  -11.76858
       O   -12.36427  -10.07772  -12.48794
      H1   -13.10896  -10.46650  -12.01709
       H   -10.02838   -8.08833   -9.65902
       O   -10.51556   -7.58836   -9.02924
      H1   -11.13341   -7.20074   -9.59457
       H    -8.52325  -11.70047   -2.81101
       O    -7.72796  -12.08563   -2.43922
      H1    -7.56650  -11.36286   -1.80252
       H    -8.87087   -7.10111  -12.14760
       O    -9.34425   -6.96796  -12.91088
      H1    -9.30270   -5.98916  -13.07822
       H    -1.83676  -10.08409   -8.97288
       O    -1.52877   -9.95605   -9.88590
      H1    -0.62318  -10.26615   -9.87910
       H   -12.73065  -12.44941   -9.13823
       O   -12.67803  -13.09493   -9.87179
      H1   -12.08657  -13.74059   -9.53131
       H   -10.06114   -6.62788   -7.38228
       O    -9.64366   -6.15619   -6.64514
      H1    -9.28094   -6.78007   -5.97937
       H    -9.83626   -9.09971   -7.95752
       O   -10.00286   -9.92075   -7.51694
      H1    -9.43425  -10.54184   -7.90472
       H    -1.25100  -13.08412   -5.43943
       O    -1.35023  -12.51120   -4.65043
      H1    -1.92012  -11.80549   -4.90608
       H    -6.45080   -8.97398  -13.87989
       O    -7.21411   -9.50181  -13.74292
      H1    -7.96156   -8.83498  -13.87963
       H    -6.92869  -14.30832   -8.46093
       O    -7.90190  -14.26638   -8.75714
      H1    -8.12105  -13.28152   -8.59197
       H    -2.79704  -10.93241  -11.04616
       O    -3.59166  -11.09478  -11.57763
      H1    -4.29925  -10.67381  -11.04699
       H    -6.51183  -12.15843   -4.51785
       O    -5.97473  -11.41651   -4.88099
      H1    -6.22557  -10.69385   -4.30400
       H    -8.93448  -14.91926   -7.34036
       O    -9.68189  -15.11531   -6.75062
      H1    -9.81229  -14.26726   -6.26966
       H    -9.65700  -12.18080  -13.01567
       O   -10.37684  -12.63764  -13.51147
      H1   -11.08108  -11.96445  -13.55149
       H    -8.41040  -15.22208   -3.09106
       O    -9.05572  -15.43574   -3.80967
      H1    -8.44568  -15.44769   -4.58276
       H   -12.77593  -10.54816   -7.42916
       O   -12.44502  -10.55087   -8.33720
      H1   -11.52548  -10.43745   -8.19305
       H    -5.90973  -11.31232  -10.48998
       O    -5.80028  -10.47220   -9.98519
      H1    -6.48426   -9.87798  -10.51426
       H    -6.91651  -11.04734   -8.22146
       O    -7.66928  -11.58034   -7.96000
      H1    -7.66323  -11.46144   -7.00212
       H    -5.74949  -13.69784  -11.57834
       O    -5.42210  -13.11567  -10.82247
      H1    -4.62082  -12.73734  -11.21813
       H    -8.84610   -9.79403   -2.06901
       O    -9.66605   -9.80067   -2.55102
      H1    -9.39259   -9.78906   -3.50108
       H   -10.36475  -12.52659   -5.07681
       O   -10.15637  -12.36682   -6.00323
      H1   -10.95152  -11.96139   -6.33179
       H    -1.80269   -8.84254   -7.15781
       O    -2.53567   -9.45804   -7.33283
      H1    -3.29885   -8.89296   -7.38368
       H    -4.39105   -7.60615   -6.05129
       O    -5.03649   -8.30117   -6.19319
      H1    -5.85217   -7.88711   -5.87463
       H    -7.79677  -15.39598  -11.77819
       O    -7.98207  -14.44261  -11.64999
      H1    -7.85380  -14.40108  -10.68143
       H   -10.47019   -8.22962   -5.14487
       O    -9.55908   -8.58698   -5.18984
      H1    -9.60820   -9.26445   -5.92542
       H    -8.05291   -4.86648   -9.40771
       O    -7.73305   -5.13064   -8.49455
      H1    -8.59476   -5.52275   -8.19627
       H    -3.75698  -12.27499   -6.27787
       O    -3.42794  -12.66548   -7.09997
      H1    -3.89429  -13.48784   -7.22126
       H    -7.57718  -11.18430  -12.71526
       O    -8.14419  -11.66991  -12.09497
      H1    -7.67366  -12.56212  -12.02674
       H    -5.97657   -6.00182   -8.95437
       O    -5.18649   -6.44973   -9.28634
      H1    -4.48337   -6.28815   -8.60881
       H    -9.54962  -10.40921  -10.13841
       O    -9.25361   -9.51108  -10.57559
      H1    -8.40035   -9.80139  -10.89572
       H   -10.84339  -12.49605   -9.96586
       O   -10.06478  -11.98146   -9.84334
      H1    -9.58611  -12.09263  -10.67813
       H    -4.32599  -11.00086   -4.84000
       O    -3.37302  -10.70722   -4.75159
      H1    -3.32753  -10.11229   -5.50787
       H    -1.45980  -15.06596   -6.34782
       O    -1.03329  -14.37796   -6.85903
      H1    -1.81922  -14.02597   -7.29405
       H    -4.62184  -15.81346   -8.45735
       O    -5.10217  -14.99744   -8.12234
      H1    -4.75120  -14.36267   -8.81969
       H    -8.65260   -6.53484   -4.12751
       O    -7.75792   -6.52691   -4.52041
      H1    -7.75584   -5.66218   -4.96079
       H   -10.90698  -15.11247   -8.34751
       O   -11.01606  -14.85510   -9.29162
      H1   -10.08916  -14.60039   -9.41413
       H    -5.44035  -15.42532   -6.02126
       O    -6.13215  -15.45511   -5.36310
      H1    -5.59704  -15.66606   -4.61403

