120
frame 0 | Written by MDAnalysis XYZWriter (release 2.4.3)
       H     4.38885   -1.11861    6.49226
       O     4.45523   -1.67097    5.67524
      H1     3.61063   -2.18716    5.58331
       H     0.50935   -3.87328    5.67724
       O     1.25591   -4.52676    5.65572
      H1     1.54481   -4.65269    6.61258
       H     4.19261  -10.88355   10.18974
       O     3.40241  -10.29838   10.27871
      H1     2.64175  -10.93560   10.19627
       H     7.76388   -8.92612    8.64656
       O     7.90166   -8.04967    9.07356
      H1     8.13214   -8.22529   10.01700
       H    -0.89529   -7.78644    9.63518
       O    -0.46734   -8.54396   10.02819
      H1     0.10046   -8.94619    9.30448
       H     3.74976  -10.93475    6.61981
       O     4.07199  -11.06615    7.50570
      H1     4.92828  -10.61074    7.43340
       H    -2.40554   -4.85648   12.30127
       O    -2.61312   -4.43958   11.45788
      H1    -1.98087   -4.80049   10.78420
       H     2.25678    0.47711   10.02126
       O     3.12406    0.14094   10.11129
      H1     3.05159   -0.78566    9.88814
       H    -0.90735   -7.73032    7.13927
       O    -1.75068   -7.46613    7.49635
      H1    -1.97103   -6.56015    7.17829
       H     6.63332   -1.67283   11.39754
       O     6.25345   -1.78145   10.53954
      H1     6.52561   -2.72014   10.39590
       H     1.57580   -8.07594    6.86680
       O     0.82135   -7.58815    6.41063
      H1     1.08027   -7.64706    5.45279
       H     5.44608  -12.05498   11.69546
       O     5.78084  -12.00343   10.84042
      H1     5.93213  -12.91254   10.61868
       H     4.33916   -6.37130    9.20218
       O     3.69322   -6.29468    9.93028
      H1     4.10162   -5.68050   10.58029
       H     5.95251   -2.96804    5.37844
       O     6.85472   -3.26080    5.44367
      H1     6.93111   -3.92695    4.69132
       H     0.10440  -10.57610    7.59305
       O    -0.37207  -10.13043    6.88584
      H1     0.31070   -9.54003    6.60022
       H     5.47354   -7.50380   10.66530
       O     5.54832   -7.72206   11.58942
      H1     4.70980   -8.17834   11.80213
       H     0.01060   -2.85350   13.17782
       O    -0.79271   -3.17556   13.63579
      H1    -1.43132   -2.44057   13.47245
       H     0.65536   -6.39545   12.54727
       O     1.10931   -6.50404   11.69782
      H1     0.33191   -6.67850   11.11665
       H     1.96482   -9.20229   15.21216
       O     1.81890   -8.39494   14.68643
      H1     2.41440   -8.51414   13.90162
       H     4.86025   -9.23029   14.76009
       O     5.44174  -10.02286   14.86666
      H1     5.21113  -10.27066   15.78604
       H     3.04850   -7.79851   11.83668
       O     3.12401   -8.62198   12.39750
      H1     3.18741   -9.35039   11.74075
       H     2.41878   -5.51823    8.80998
       O     1.61921   -5.21263    8.33459
      H1     1.42554   -5.99762    7.83571
       H     1.25199   -9.16791   12.57011
       O     0.39666   -9.58327   12.32088
      H1     0.05715   -9.14071   11.46194
       H     0.87089   -2.20671    8.85272
       O     1.52144   -2.18305    9.56313
      H1     2.32115   -2.49531    9.06443
       H     0.27467   -5.39654    9.70816
       O    -0.64407   -5.46628    9.83905
      H1    -0.95593   -5.24780    8.94492
       H     0.81902   -6.80069   14.45214
       O     0.07885   -6.22396   14.20518
      H1     0.43586   -5.37594   14.56203
       H     6.47578   -5.73395    8.27745
       O     5.88843   -6.51503    8.09395
      H1     6.48631   -7.14130    8.55841
       H     6.26862   -6.07103   14.51395
       O     5.88219   -5.80498   13.66483
      H1     5.98356   -6.58081   13.09324
       H     7.16470   -3.63508    7.48239
       O     7.52384   -4.29632    8.14285
      H1     8.45448   -4.15853    8.16402
       H     3.63122   -6.13827   15.56966
       O     3.30323   -5.85382   14.71963
      H1     4.18083   -5.82670   14.26517
       H     0.00895  -12.07037    8.95113
       O     0.74804  -11.48502    8.79703
      H1     1.26126  -11.95821    8.16067
       H    -2.32109   -4.17034    6.64293
       O    -1.43946   -4.36073    7.05291
      H1    -1.36076   -3.58341    7.64390
       H     6.87970   -6.66507    6.49096
       O     7.57529   -7.18135    6.08675
      H1     7.88959   -6.68281    5.34775
       H     7.12171   -4.86836   12.82511
       O     7.60471   -4.44688   12.09732
      H1     7.75911   -3.55256   12.37820
       H     4.97770   -3.55099   15.31627
       O     5.73813   -3.63660   15.92565
      H1     6.44063   -3.15527   15.42537
       H     4.76094   -2.71791    8.58834
       O     3.98121   -3.24824    8.73322
      H1     4.29123   -3.82137    9.45460
       H     1.25206   -4.72397   11.43157
       O     1.29475   -3.81367   11.73684
      H1     1.44286   -3.29846   10.93543
       H     3.08510   -3.82560   11.93900
       O     3.97658   -3.89118   11.60533
      H1     4.38424   -3.26583   12.21048
       H    -1.70562   -7.91572   11.99173
       O    -2.64722   -7.84416   11.96450
      H1    -2.84263   -7.09566   12.59972
       H     2.63881   -9.40662    8.78706
       O     2.31272   -8.47756    8.48645
      H1     2.56447   -7.92711    9.24775

