120
frame 0 | Written by MDAnalysis XYZWriter (release 2.4.3)
       H    -6.39475   -7.70460  -11.97379
       O    -6.68642   -8.05831  -11.12658
      H1    -6.01781   -7.62975  -10.56123
       H    -1.77808    0.46496  -14.07849
       O    -1.47146   -0.04014  -13.27592
      H1    -2.29822    0.06305  -12.73090
       H    -1.53849   -3.08477  -13.67188
       O    -2.14277   -2.49417  -14.10442
      H1    -1.71669   -1.63223  -13.84486
       H    -6.63011   -1.69347  -10.86875
       O    -7.57799   -1.43210  -11.04835
      H1    -7.77649   -0.98918  -10.21949
       H    -1.53158   -2.81311   -5.58398
       O    -0.78283   -3.40529   -5.34307
      H1    -0.22447   -3.34748   -6.17729
       H    -3.38500    0.85241   -4.97913
       O    -3.03229    0.15208   -4.44798
      H1    -2.15259    0.49422   -4.17200
       H     3.77228   -2.79519   -9.09185
       O     3.46114   -3.68019   -8.84253
      H1     2.83696   -3.44038   -8.12791
       H     0.52451   -2.69104  -12.10120
       O     0.07430   -2.87275  -11.28079
      H1     0.36169   -3.74991  -11.02368
       H    -0.12116    0.49709  -11.77530
       O    -0.01162    1.25968  -11.17149
      H1    -0.75053    1.83749  -11.34212
       H    -6.31670   -5.40191  -13.48114
       O    -5.77827   -5.42031  -12.70707
      H1    -6.48079   -5.25563  -12.06339
       H    -2.96244   -5.98880  -12.43694
       O    -3.33722   -6.52165  -11.67819
      H1    -3.92807   -5.90415  -11.27944
       H     0.63327   -2.17784   -8.49555
       O     0.40036   -1.27406   -8.79871
      H1    -0.19044   -1.42290   -9.55887
       H     2.62295   -3.15504   -5.78620
       O     2.24381   -2.70641   -6.55323
      H1     2.56060   -1.83010   -6.41656
       H     2.03335   -4.35610  -10.11621
       O     1.35604   -4.98407  -10.54900
      H1     0.72117   -5.13997   -9.84990
       H    -0.55171   -7.83390  -11.90230
       O    -0.05767   -7.33424  -12.51428
      H1     0.86297   -7.68272  -12.41602
       H     2.07772   -6.63891  -10.90298
       O     2.45794   -7.50552  -11.21551
      H1     3.12748   -7.23565  -11.89551
       H    -0.03054   -7.16511   -5.61694
       O    -0.77526   -6.69282   -5.97461
      H1    -0.80758   -5.87717   -5.39446
       H    -3.95725   -1.52407   -4.76857
       O    -3.98377   -2.47348   -5.12996
      H1    -4.64014   -2.36624   -5.83913
       H    -1.10153   -4.55351  -12.04967
       O    -1.11413   -4.93050  -12.91836
      H1    -0.53062   -5.66132  -12.69910
       H    -1.80269   -8.84254   -7.15781
       O    -2.53567   -9.45804   -7.33283
      H1    -3.29885   -8.89296   -7.38368
       H    -2.50712   -0.73897   -5.98397
       O    -1.96621   -1.19351   -6.65390
      H1    -1.35343   -0.45791   -6.75982
       H    -4.39105   -7.60615   -6.05129
       O    -5.03649   -8.30117   -6.19319
      H1    -5.85217   -7.88711   -5.87463
       H    -8.05291   -4.86648   -9.40771
       O    -7.73305   -5.13064   -8.49455
      H1    -8.59476   -5.52275   -8.19627
       H    -3.58111    1.78030   -6.99320
       O    -4.23600    1.81108   -6.29176
      H1    -4.84576    1.13155   -6.61048
       H    -0.13000    1.75039   -8.07529
       O    -0.72535    0.98616   -7.88528
      H1    -0.35611    0.15398   -8.29905
       H    -4.64924   -0.28441  -12.38002
       O    -4.00128   -0.03721  -11.70043
      H1    -4.19027    0.91875  -11.42768
       H    -5.97657   -6.00182   -8.95437
       O    -5.18649   -6.44973   -9.28634
      H1    -4.48337   -6.28815   -8.60881
       H    -2.39478   -2.61801   -8.09343
       O    -2.26355   -3.19739   -8.86075
      H1    -2.58451   -4.05743   -8.58675
       H    -2.04266   -6.67749   -8.22999
       O    -2.77155   -6.11119   -7.86645
      H1    -2.51789   -6.05086   -6.94796
       H    -3.74380   -3.61805   -2.28967
       O    -4.66001   -3.61295   -2.58428
      H1    -4.54605   -3.09190   -3.42164
       H    -0.65286   -4.14603   -8.40423
       O     0.24705   -4.25618   -7.97258
      H1     0.20033   -5.18793   -7.63088
       H    -2.04279   -7.01321  -10.61771
       O    -1.41511   -7.39636   -9.94950
      H1    -1.59262   -8.33176  -10.02652
       H     1.14013   -1.83037   -4.03234
       O     1.16547   -1.04996   -4.64532
      H1     1.01667   -1.52018   -5.50793
       H     0.74454   -3.35454   -1.99624
       O     0.33306   -2.69868   -2.55896
      H1     0.12345   -3.30877   -3.29454
       H     2.12729   -0.17854   -9.12266
       O     2.87047    0.36900   -8.77941
      H1     2.83035    0.10010   -7.87000
       H    -2.43716    3.27303   -8.22033
       O    -2.75305    2.43869   -8.57711
      H1    -1.95598    1.80692   -8.47300
       H    -3.99753   -3.03789  -13.78954
       O    -4.93695   -2.97629  -13.47403
      H1    -5.01605   -3.87070  -13.13331
       H    -4.44634   -0.85331  -10.42042
       O    -4.51105   -1.40197   -9.60696
      H1    -3.85935   -2.16643   -9.70213
       H    -6.47012   -0.73969   -6.46012
       O    -6.47256    0.14031   -5.98844
      H1    -6.64859   -0.20382   -5.05365
       H    -5.54701   -1.81992   -8.26333
       O    -6.13215   -2.12032   -7.53875
      H1    -6.42708   -2.97268   -7.90266

