120
frame 0 | Written by MDAnalysis XYZWriter (release 2.4.3)
       H   -16.47276   18.95745   13.87355
       O   -17.23277   18.62387   13.39813
      H1   -17.43027   17.87413   13.92564
       H    -9.25525   19.49653   14.58851
       O    -9.79554   19.76666   15.35640
      H1    -9.52595   19.17879   16.10259
       H   -14.42263   17.49479    9.02580
       O   -15.30593   17.82495    9.40377
      H1   -15.84642   17.82899    8.60896
       H    -8.05661   15.53127   17.65742
       O    -8.94824   15.69702   17.79443
      H1    -9.41126   15.48500   16.99336
       H    -8.13840   14.66698   14.54231
       O    -9.05107   14.72161   14.25460
      H1    -8.96071   13.97803   13.65150
       H   -17.60010   16.07486   17.86791
       O   -16.98071   16.51820   17.23437
      H1   -16.95156   17.41832   17.70389
       H   -13.89310   15.29508   17.11301
       O   -13.69449   14.75845   16.31860
      H1   -13.90506   13.87064   16.69167
       H   -16.83305   15.72622   14.31804
       O   -17.65369   16.18900   14.51136
      H1   -17.64652   16.26249   15.46088
       H   -14.70180   16.46668   13.18987
       O   -14.22108   17.25156   12.82326
      H1   -13.28243   17.08332   13.08171
       H   -13.90395   17.41078   18.04734
       O   -14.39463   16.62306   18.36153
      H1   -15.23983   16.74485   17.97343
       H    -8.48450   19.44971   11.48268
       O    -9.28623   19.21564   12.02527
      H1    -9.53848   18.38825   11.58804
       H   -13.43256   19.06055   15.53638
       O   -12.82610   18.91327   16.28839
      H1   -12.07481   19.52027   16.10610
       H    -9.80555   17.59488    8.35266
       O    -9.53437   16.69744    8.64629
      H1   -10.30979   16.32332    9.09202
       H   -11.06854   13.77131   10.13608
       O   -10.73635   13.67589    9.26136
      H1   -11.48688   13.54151    8.70499
       H    -8.37387   12.14252   12.26978
       O    -9.01930   12.35682   12.95511
      H1    -9.57742   11.48803   12.86640
       H    -9.26342   18.70802   18.34342
       O    -8.85857   18.35977   17.53119
      H1    -8.80603   17.43101   17.79779
       H   -17.09529   17.28411   12.00076
       O   -16.99012   16.59500   11.35320
      H1   -16.47013   17.11574   10.66365
       H   -10.64658   16.64730   12.50976
       O    -9.97577   16.42341   11.81709
      H1   -10.43801   15.71491   11.45121
       H   -14.71796   18.90140   13.59064
       O   -14.79389   19.47972   14.33921
      H1   -14.94722   20.33448   13.90961
       H   -14.75235   12.74141   18.70460
       O   -15.17186   12.99384   17.87013
      H1   -15.41736   13.93184   17.89914
       H   -16.43066   18.27099    5.89287
       O   -16.45154   18.34432    6.91612
      H1   -17.43018   18.45578    7.12930
       H   -11.77947   14.59173   16.03251
       O   -11.04618   15.21035   16.01073
      H1   -10.48267   14.77401   15.34296
       H   -10.82701   12.96505   12.25156
       O   -11.64038   13.40411   11.95688
      H1   -12.20779   12.60118   11.82482
       H   -18.59109   16.70118    8.62009
       O   -18.81283   17.52529    9.03674
      H1   -18.70963   17.40491    9.98784
       H    -7.32938   16.70231   11.29959
       O    -7.20412   16.51929   10.33586
      H1    -8.08191   16.69816    9.93023
       H   -16.57287   19.34753   19.28967
       O   -17.19883   18.69824   18.81874
      H1   -17.98768   19.24471   18.68218
       H   -13.34054   16.43582   10.80345
       O   -12.77883   16.92626   10.23414
      H1   -12.69510   17.76145   10.70448
       H   -14.34802   17.72770    6.91558
       O   -13.63628   17.14169    7.22094
      H1   -13.94549   16.27836    6.90572
       H   -15.42413   12.10919   12.71260
       O   -15.08470   12.33842   13.58449
      H1   -15.90981   12.22941   14.06668
       H    -6.78760   16.97020   14.04510
       O    -7.11559   16.75562   13.13937
      H1    -8.02212   16.46638   13.30777
       H   -18.25165   15.12035   10.89639
       O   -18.47451   14.17831   10.99604
      H1   -19.43129   14.23661   10.98400
       H   -16.86562   12.71282   11.18172
       O   -15.98111   12.43013   10.94546
      H1   -15.69746   13.32840   10.63325
       H   -17.89226   11.34030   14.00810
       O   -17.63170   12.08912   14.69140
      H1   -18.24880   12.82508   14.57154
       H   -19.74961   13.27458   13.89921
       O   -19.66365   13.96482   14.56634
      H1   -19.00751   14.59291   14.27891
       H   -14.84536   15.07305   14.78721
       O   -15.33269   15.05223   13.90757
      H1   -15.12520   14.14534   13.71067
       H   -13.55491   11.08406   11.50595
       O   -13.43679   11.64043   10.68109
      H1   -14.28315   12.02618   10.57823
       H   -18.63319   12.86405    9.46615
       O   -19.09526   12.07972    9.09487
      H1   -18.52734   11.74406    8.39069
       H   -12.03831   18.51228    7.90971
       O   -11.47087   19.15580    8.34341
      H1   -11.33905   19.66545    7.50558
       H   -11.48846   17.93500   14.03991
       O   -11.64879   17.04487   13.68443
      H1   -11.39678   16.46791   14.52179
       H   -14.06520   14.45230   11.48253
       O   -14.56074   14.49601   10.70245
      H1   -15.24328   15.07950   10.95822

