120
frame 1 | Written by MDAnalysis XYZWriter (release 2.4.3)
       H   -13.67962   -0.08652  -10.61922
       O   -13.98246    0.76812  -10.28684
      H1   -13.62840    1.35330  -11.04077
       H   -12.89575    3.56423  -11.31335
       O   -13.11072    2.83545  -12.00126
      H1   -13.78269    3.33820  -12.52489
       H   -18.58093   -7.58335  -13.35515
       O   -18.14145   -6.74014  -13.46055
      H1   -17.44546   -7.01378  -14.16122
       H   -17.36781    1.37658   -7.62924
       O   -17.95213    1.20498   -8.35414
      H1   -18.37398    0.35026   -8.35449
       H   -14.59396    1.35823   -6.96285
       O   -14.05090    1.86002   -7.56748
      H1   -14.22874    1.34461   -8.36733
       H   -15.44610    3.40354  -13.00558
       O   -15.76354    2.50098  -13.04347
      H1   -16.11451    2.32976  -12.11682
       H   -16.58787   -3.41171  -15.04303
       O   -15.72228   -3.41877  -15.43279
      H1   -15.84347   -3.84291  -16.27823
       H   -11.45942   -1.15922  -15.40811
       O   -11.87134   -0.80947  -16.23905
      H1   -12.68044   -0.34136  -16.03924
       H   -18.83058   -2.73732  -13.80320
       O   -18.01915   -3.26144  -13.54140
      H1   -17.44081   -2.51191  -13.29628
       H   -12.82338   -4.06287   -8.64056
       O   -12.59284   -3.22314   -8.98520
      H1   -12.76958   -2.57429   -8.28966
       H   -11.09272   -6.47511  -12.47072
       O   -11.60044   -6.52460  -11.61187
      H1   -12.57099   -6.60972  -11.88471
       H   -14.69012   -4.79867   -7.55742
       O   -14.97667   -4.52966   -6.64351
      H1   -15.17878   -3.64372   -6.82368
       H   -18.00239    2.90638  -10.54895
       O   -17.47011    2.15618  -10.85227
      H1   -17.41608    1.71392   -9.95717
       H   -16.69341   -0.81999  -12.39004
       O   -16.54382   -1.02549  -13.36096
      H1   -16.93112   -0.25321  -13.83935
       H   -16.54779   -7.05097   -9.34844
       O   -16.43834   -7.52242  -10.17491
      H1   -16.45187   -8.50508   -9.98142
       H   -15.19114   -0.28161   -4.77751
       O   -15.10031   -0.36430   -5.74082
      H1   -14.17252   -0.71077   -5.91096
       H   -11.26174   -3.80798  -10.09309
       O   -10.76112   -3.98450  -10.87403
      H1   -11.05811   -4.88821  -11.25165
       H   -16.39602   -5.66666   -7.11615
       O   -16.90706   -6.22448   -7.78651
      H1   -17.66252   -6.44602   -7.24998
       H   -17.27628   -2.13603   -6.34856
       O   -17.92351   -2.33524   -5.65535
      H1   -17.44407   -3.03929   -5.16940
       H    -9.78688    0.82081  -10.33553
       O   -10.51973    1.16952  -10.90404
      H1   -11.39618    0.83935  -10.62274
       H   -15.50380   -1.60946  -10.69821
       O   -16.41327   -1.46960  -10.41276
      H1   -16.86456   -2.28511  -10.66483
       H   -18.04858   -3.77729  -11.74144
       O   -18.02847   -3.70514  -10.76207
      H1   -18.00658   -4.69301  -10.62310
       H   -12.30444   -1.82454  -13.77583
       O   -12.43006   -1.02950  -13.20850
      H1   -11.45560   -0.79996  -13.11358
       H   -16.12788   -1.79598   -8.66958
       O   -16.15539   -2.01251   -7.71807
      H1   -15.79071   -1.23611   -7.37183
       H   -13.33018   -1.69899  -11.95883
       O   -13.94933   -2.10324  -11.31299
      H1   -13.37313   -2.48544  -10.65491
       H   -16.98192    1.37206  -15.82092
       O   -17.31100    1.09208  -14.97497
      H1   -16.80181    1.58583  -14.33572
       H   -15.82729    2.83036   -5.58359
       O   -16.65766    2.68348   -5.99541
      H1   -17.15661    2.05989   -5.52461
       H   -12.54672   -1.99247   -5.81088
       O   -12.59755   -1.50812   -6.68415
      H1   -11.72674   -1.19092   -6.84713
       H   -14.95078   -3.48066  -12.15722
       O   -15.13260   -4.31033  -12.64870
      H1   -15.29779   -3.92759  -13.49474
       H    -9.12764   -0.80549  -13.39832
       O    -9.66349   -0.01618  -13.40187
      H1    -9.74872    0.20516  -12.44628
       H   -11.04764    2.37885   -6.64878
       O   -11.36591    2.03349   -7.52217
      H1   -12.35656    1.97406   -7.41482
       H   -17.65192   -0.79420   -4.92449
       O   -17.65071   -0.11583   -4.22971
      H1   -17.13242   -0.52080   -3.50666
       H   -11.40498   -3.50908  -12.73840
       O   -11.61392   -3.40324  -13.67285
      H1   -12.07375   -4.19805  -13.99111
       H   -13.31160    0.50074  -13.98548
       O   -13.60732    1.33440  -14.42152
      H1   -14.27342    1.72534  -13.79969
       H   -18.70425   -1.55738   -9.78469
       O   -19.39042   -1.10349   -9.31564
      H1   -19.73322   -1.76639   -8.67311
       H   -14.20096   -6.17169   -9.86961
       O   -13.88156   -5.69355   -9.06094
      H1   -14.09642   -6.42931   -8.45168
       H   -11.90502    2.18279  -14.80921
       O   -11.27063    2.81945  -15.07005
      H1   -10.75200    2.32985  -15.75084
       H   -15.16171   -6.96885  -11.08949
       O   -14.39404   -6.77923  -11.64915
      H1   -14.72974   -5.96528  -12.07704
       H   -14.91532   -1.63499  -15.93862
       O   -14.82036   -0.67890  -16.04747
      H1   -15.32429   -0.47675  -15.21773
       H   -19.47942   -6.58101  -11.00502
       O   -18.88292   -6.43629  -10.26776
      H1   -18.04879   -6.74263  -10.58209

