120
frame 0 | Written by MDAnalysis XYZWriter (release 2.4.3)
       H    11.57653  -13.17340   -4.22231
       O    10.76888  -13.20212   -4.74891
      H1    10.87376  -12.43933   -5.29914
       H     8.21954   -8.53123   -1.29095
       O     8.94569   -8.99006   -0.72680
      H1     8.52115   -9.88560   -0.55162
       H    14.92704   -8.03284   -7.17341
       O    15.09609   -8.99814   -7.02396
      H1    14.69396   -9.17788   -6.16533
       H    16.56810   -6.74880   -4.26871
       O    16.54715   -7.02939   -3.32346
      H1    17.35249   -6.62743   -3.01696
       H    13.62986  -10.46770   -9.05475
       O    14.35740  -11.02434   -8.70189
      H1    14.75226  -10.34487   -8.07999
       H    14.48214   -5.14848   -5.56707
       O    13.96775   -5.34057   -6.37506
      H1    13.12572   -5.64656   -6.03276
       H     9.32796   -3.74377   -5.65403
       O     9.16555   -4.44584   -5.05115
      H1     8.36451   -4.23259   -4.54504
       H    11.62788  -11.62285    0.46699
       O    11.83348  -11.16597   -0.36369
      H1    11.16248  -11.50923   -0.97689
       H    13.79590   -5.68267   -2.81611
       O    13.48295   -5.00307   -3.43660
      H1    13.78515   -4.19543   -2.92434
       H    12.97520   -8.75717   -4.20585
       O    13.67927   -9.13258   -3.58292
      H1    13.24306   -9.99878   -3.39098
       H    13.79706   -4.37832   -8.07426
       O    13.41412   -4.17110   -8.93493
      H1    12.57762   -4.54911   -8.82675
       H    18.25961   -6.42107   -5.85714
       O    17.45144   -6.94772   -5.86846
      H1    16.98565   -6.51293   -6.61197
       H    12.60131   -8.05385   -0.71456
       O    12.65359   -7.44546   -1.48055
      H1    13.08127   -8.02688   -2.12350
       H     9.21448  -11.99128   -7.14238
       O     8.33997  -12.09366   -6.64787
      H1     7.75599  -11.60287   -7.23304
       H    11.83254   -9.19490   -9.41426
       O    12.29097   -9.78748  -10.05299
      H1    11.66572  -10.52179  -10.09701
       H    10.95251   -6.80689   -1.80240
       O    10.08463   -6.50309   -1.58077
      H1     9.75838   -7.04381   -0.88919
       H    16.40140  -13.26499   -3.55806
       O    15.53454  -12.83493   -3.70398
      H1    15.84985  -11.92497   -3.83549
       H    13.55610   -9.18496    1.32640
       O    12.67342   -8.89097    0.96380
      H1    12.41499   -9.68499    0.50341
       H    12.16758  -11.57570   -7.05307
       O    11.29955  -11.15122   -6.87033
      H1    11.58834  -10.31400   -6.41394
       H    13.78740  -12.59114   -3.35982
       O    12.85357  -12.27222   -3.33278
      H1    12.60815  -12.56722   -2.38796
       H    16.37111   -6.20818   -9.30748
       O    16.75470   -6.08152   -8.42689
      H1    17.50358   -5.56469   -8.60217
       H     7.93893   -6.72516   -2.28644
       O     7.22669   -7.36882   -2.18691
      H1     6.71720   -7.04371   -1.42944
       H    17.60950  -10.16795   -6.47518
       O    17.96880   -9.43275   -5.98238
      H1    17.48985   -8.57255   -6.13476
       H    10.32423   -4.52265   -2.40285
       O    10.20342   -3.55659   -2.52607
      H1    11.04499   -3.19034   -2.27403
       H    10.08294   -7.75808   -7.92953
       O    10.36867   -8.05614   -8.79778
      H1    10.34530   -7.19530   -9.26270
       H    10.54266   -5.51706   -5.42962
       O    11.48333   -5.85391   -5.29165
      H1    11.74487   -5.11213   -4.63043
       H    16.19201   -8.46155   -1.47521
       O    16.06864   -8.77747   -0.56050
      H1    16.65086   -9.62232   -0.52359
       H     8.51287   -9.67489   -4.40124
       O     7.85059   -9.76437   -5.08015
      H1     8.19015  -10.39388   -5.77136
       H    13.36005   -2.83164   -6.37505
       O    12.75960   -2.31515   -6.96542
      H1    12.89310   -2.83002   -7.77348
       H    11.03938   -8.78288   -4.66728
       O    11.68329   -8.63661   -5.36761
      H1    11.63487   -7.70781   -5.57664
       H     9.60472  -12.87088   -3.29943
       O     9.07890  -12.52422   -2.59494
      H1     8.10825  -12.62367   -2.93333
       H    15.08205   -3.64363   -0.94065
       O    14.48623   -3.28448   -1.71714
      H1    15.15099   -2.95476   -2.29138
       H    15.04280  -15.35739   -5.44541
       O    14.81082  -14.42948   -5.64522
      H1    14.93848  -13.94639   -4.81299
       H    16.81205   -9.53777   -4.40011
       O    16.33056  -10.12471   -3.82235
      H1    15.70432   -9.44866   -3.50246
       H     9.36521   -9.84000   -2.33631
       O     9.85871  -10.10377   -3.15041
      H1     9.59569  -11.05154   -3.16658
       H    13.66587  -12.77870   -8.24122
       O    13.34149  -13.57800   -7.82863
      H1    13.85143  -13.80601   -7.07135
       H    12.70177  -13.28030   -0.47553
       O    12.81933  -14.01348   -1.06838
      H1    11.93587  -14.42842   -1.08185
       H    18.91799   -9.50357   -2.65853
       O    18.38126   -9.81746   -1.94921
      H1    17.67482  -10.14367   -2.50354
       H    14.75594  -11.44627    1.22761
       O    15.01216  -10.85902    1.93503
      H1    15.69171  -11.37317    2.35420
       H     6.55095   -7.74853   -7.35443
       O     7.28098   -7.43308   -6.83645
      H1     7.63625   -8.17722   -6.43278

