120
frame 8 | Written by MDAnalysis XYZWriter (release 2.4.3)
       H   -18.04379    1.93671   -5.66835
       O   -17.78323    2.56045   -6.38308
      H1   -17.03225    2.11857   -6.83251
       H   -18.15818   -0.04459   -9.24699
       O   -17.35194    0.35841   -9.61200
      H1   -16.78069    0.58911   -8.89128
       H   -13.07595    2.25458   -6.60837
       O   -12.35006    1.85838   -6.04449
      H1   -11.49894    2.08850   -6.33563
       H   -16.55895   -4.88398   -1.63978
       O   -16.84118   -4.07943   -2.11546
      H1   -17.20596   -4.34093   -2.90685
       H   -15.84431    5.52257   -2.76793
       O   -14.88272    5.50990   -2.64024
      H1   -14.55823    6.40717   -2.79273
       H   -16.35379   -0.55308  -10.65278
       O   -15.68662   -0.91777  -11.30598
      H1   -16.05766   -1.63970  -11.88341
       H   -18.09186    3.19157   -9.72633
       O   -17.31501    2.89342  -10.28690
      H1   -17.18557    1.97830  -10.07048
       H   -15.00336    8.36582   -3.45534
       O   -14.04960    8.15452   -3.36714
      H1   -13.73143    8.53914   -2.52449
       H   -19.49017   -3.78593  -10.89158
       O   -18.59336   -3.53135  -10.98674
      H1   -18.04540   -4.01861  -10.30990
       H   -14.81182   -2.27706   -8.50681
       O   -14.82796   -2.83638   -9.25752
      H1   -15.06844   -2.40196  -10.08661
       H   -15.45045   -3.62865   -6.06485
       O   -15.53963   -2.77892   -6.52445
      H1   -14.99214   -2.33546   -5.90503
       H   -14.81566    0.90461  -11.38260
       O   -14.54012    1.77867  -11.12247
      H1   -15.24995    2.18226  -10.67923
       H   -16.12292   -5.66821   -9.81660
       O   -16.54690   -4.96739   -9.31757
      H1   -15.82912   -4.29674   -9.23876
       H   -12.82738    1.99855  -10.19917
       O   -12.10445    1.83027   -9.62485
      H1   -11.78488    0.91650   -9.85670
       H   -18.92332   -4.81260   -4.30017
       O   -18.00493   -4.47889   -4.47395
      H1   -18.17562   -3.60753   -4.84943
       H   -16.42077    3.01430   -4.88412
       O   -16.00932    2.44071   -4.23141
      H1   -15.40497    3.02909   -3.79214
       H   -18.83608   -2.43826   -6.13038
       O   -18.24021   -1.96440   -5.64043
      H1   -17.42547   -1.93169   -6.12949
       H   -15.51907    7.36843   -8.30654
       O   -15.83412    8.19683   -8.60395
      H1   -16.54791    8.02838   -9.26643
       H   -13.51013    6.91655   -7.18555
       O   -13.95699    6.36860   -7.86239
      H1   -13.21309    6.04995   -8.44532
       H   -16.71691    9.56697   -4.00467
       O   -16.68026    8.73502   -3.53038
      H1   -17.38761    8.23636   -4.04618
       H   -13.13407    3.11498   -8.32530
       O   -13.83800    3.45156   -7.73514
      H1   -13.83478    4.42352   -7.82801
       H   -13.88719   -0.37312   -4.34903
       O   -14.70069   -0.42265   -4.82065
      H1   -14.97616    0.52874   -4.78630
       H   -18.64865    8.27699   -7.23930
       O   -17.91763    8.33725   -6.57922
      H1   -17.16300    8.68791   -7.08905
       H   -15.01010    4.04927    0.33451
       O   -14.59659    4.87609    0.04264
      H1   -14.67419    4.83460   -0.91358
       H   -15.14614    2.31510   -8.00760
       O   -15.53363    1.46466   -7.96663
      H1   -14.80050    0.83620   -7.79946
       H   -17.95470    3.17839  -12.14810
       O   -18.25869    2.89323  -13.05183
      H1   -18.27874    1.88530  -12.92697
       H   -10.50781    0.68416   -1.41576
       O   -10.91340    0.90868   -2.25335
      H1   -11.50738    1.66199   -2.05564
       H   -18.36957    5.72469   -2.15573
       O   -17.48734    5.57628   -2.57399
      H1   -17.62968    5.48414   -3.56465
       H   -12.76028    0.03077   -7.47580
       O   -13.65300   -0.34403   -7.57386
      H1   -13.97412   -0.44479   -6.68122
       H   -16.48430    6.24156  -11.26964
       O   -17.08728    6.68453  -10.66863
      H1   -17.76196    5.96388  -10.48033
       H   -19.41073   -1.84561   -0.59179
       O   -19.57407   -2.10628    0.31004
      H1   -19.01243   -1.61516    0.92793
       H   -18.09079   -2.72018   -2.35972
       O   -18.94143   -2.27423   -2.47149
      H1   -18.84601   -1.57141   -3.16269
       H   -18.59086   -0.20675   -4.78500
       O   -18.77734    0.70708   -4.50381
      H1   -19.74297    0.73372   -4.44435
       H   -12.66166    3.00256   -4.80282
       O   -12.51138    3.61724   -4.06588
      H1   -13.29895    4.21118   -4.10521
       H   -15.68863   -0.45306   -3.41482
       O   -16.25852   -0.57359   -2.62429
      H1   -16.51984    0.29336   -2.28652
       H   -17.87035    6.53717   -5.94587
       O   -18.05890    5.77228   -5.42655
      H1   -18.87266    5.33411   -5.73516
       H   -12.00870   -0.34993   -2.95806
       O   -12.52355   -1.06850   -3.31933
      H1   -12.47664   -1.76991   -2.59432
       H   -19.40993    2.87366   -1.22073
       O   -19.84921    3.66833   -0.85563
      H1   -19.35373    3.74601   -0.04977
       H   -17.41718    2.17026   -2.08715
       O   -18.10831    1.63342   -1.67609
      H1   -18.60582    1.31785   -2.45711
       H   -15.57817   -2.53415   -0.60951
       O   -14.83775   -1.89236   -0.84770
      H1   -15.22776   -1.32344   -1.54488

