120
frame 1 | Written by MDAnalysis XYZWriter (release 2.4.3)
       H     6.47399   13.08947   15.16967
       O     6.31113   12.25839   14.73551
      H1     7.19143   11.93916   14.46692
       H     3.56889   12.00653   19.13380
       O     2.98655   12.59262   19.65734
      H1     3.34178   13.47476   19.58033
       H    10.35936   14.58320   13.58306
       O     9.64507   14.25895   12.96015
      H1     8.82221   14.74185   13.24492
       H     0.58272   15.25641   16.68843
       O     1.28413   15.48768   17.32913
      H1     0.77271   15.42110   18.15217
       H    12.69851   14.56424   17.86307
       O    13.58533   14.54567   18.12264
      H1    13.65374   15.46975   18.50718
       H     7.73728   11.18758   17.08346
       O     7.82684   11.51787   17.98918
      H1     7.34363   10.93647   18.57370
       H     2.99843   17.84866   15.07620
       O     3.97535   17.79058   15.12132
      H1     4.16828   18.67522   14.73155
       H     3.44718   10.17947   17.77205
       O     4.06033   10.95746   17.62227
      H1     3.79907   11.34116   16.74399
       H     2.81532   12.68160   12.69169
       O     3.42479   13.15610   13.26831
      H1     4.23193   12.61192   13.24794
       H     0.09375   19.52536   19.10519
       O    -0.04255   18.71547   18.52884
      H1     0.91905   18.45250   18.58091
       H     9.72945   17.48969   17.54253
       O    10.08898   16.76095   18.11505
      H1    11.07164   16.81272   17.95078
       H    -0.84526   15.20027   15.63579
       O    -0.10189   15.09283   15.02339
      H1    -0.51820   15.17944   14.15508
       H    10.62771   19.92177   15.10385
       O    11.48631   19.50150   15.06030
      H1    11.48647   18.88900   15.86577
       H     0.65498   16.63708   14.69751
       O     1.11593   17.35533   14.26165
      H1     1.44972   16.85231   13.44006
       H     9.57354   11.47240   14.04691
       O     9.18991   12.14155   14.65795
      H1     9.42807   12.97653   14.20834
       H    11.01200   15.49713   11.34651
       O    10.80735   16.47523   11.29757
      H1    10.28364   16.72723   12.10753
       H     8.61941   17.74746   13.55962
       O     9.56263   17.47791   13.70888
      H1     9.99091   18.31968   13.95293
       H    11.41698   14.48045   15.46268
       O    11.59844   15.02377   14.67003
      H1    11.35068   15.92358   14.98622
       H    -0.14895   18.61991   13.65061
       O    -0.54605   19.33199   13.14923
      H1    -1.47453   19.22192   13.39276
       H     7.21837   15.56219   14.51055
       O     7.91912   15.38018   15.12400
      H1     8.38655   16.21105   14.99074
       H    13.65548   17.47121   18.67214
       O    14.14769   17.06651   19.43362
      H1    15.10848   17.09179   19.27145
       H    10.10000   11.45778   16.13584
       O    10.69572   11.26542   16.80911
      H1    10.39997   10.47047   17.17547
       H     2.60689   16.84565   18.12683
       O     2.48241   17.72492   18.53787
      H1     3.21828   18.27047   18.22975
       H     6.88888   18.60992   14.19670
       O     6.98085   17.89418   13.57644
      H1     7.03850   18.49370   12.77715
       H     4.44903   15.88769   19.87581
       O     4.04943   15.02559   19.67037
      H1     4.31800   14.90578   18.74319
       H     9.60071   18.51336    9.60127
       O     8.95430   18.29925   10.25074
      H1     9.37328   17.65661   10.80899
       H     8.07491   19.34968   17.92181
       O     8.74723   19.16024   17.18346
      H1     9.23875   20.01236   17.19978
       H    10.45914   14.65764   17.41143
       O    11.11520   13.96962   17.14065
      H1    10.69568   13.09119   17.21589
       H     4.75371   14.40532   16.40703
       O     5.01609   13.87432   17.22572
      H1     5.94651   14.03635   17.33605
       H     5.97156   19.25195   18.65059
       O     6.84901   19.22854   19.03482
      H1     7.11444   18.32376   19.20589
       H     4.13994   18.67181   16.64902
       O     4.66512   19.08575   17.35123
      H1     4.64804   20.03506   17.07414
       H    12.23957   18.86268   17.60396
       O    12.52659   18.00772   17.27501
      H1    13.37682   18.23900   16.88654
       H     2.91224   12.62557   16.17787
       O     2.99149   11.98099   15.48912
      H1     3.25491   12.56956   14.79969
       H    15.82058   18.46625   16.59557
       O    14.93364   18.69952   16.26864
      H1    15.20071   19.30499   15.58579
       H     1.25051   12.46945   18.11573
       O     0.99078   12.61744   17.18228
      H1     0.97265   13.56831   17.08657
       H     6.80537   14.69162   11.79761
       O     7.26597   15.57821   11.81937
      H1     7.93566   15.35780   11.17396
       H     4.16389   16.39334   11.17134
       O     4.72124   17.13436   11.45429
      H1     5.32340   16.67421   12.04997
       H     4.47598   14.84876   14.04562
       O     4.94845   15.23188   14.83001
      H1     4.63109   16.16268   14.66692
       H    -1.32533   17.69164   18.65804
       O    -2.23318   17.27251   18.59632
      H1    -2.09238   16.30751   18.76092
       H     7.86308   14.51511   16.94440
       O     7.58650   14.55817   17.84654
      H1     7.81830   13.70801   18.20790

