120
frame 7 | Written by MDAnalysis XYZWriter (release 2.4.3)
       H     8.17241  -12.00278    8.26086
       O     8.63674  -12.85203    8.06516
      H1     8.09505  -13.45382    8.57447
       H    12.21173  -16.68727   12.25000
       O    12.50622  -16.24879   11.44038
      H1    11.83515  -16.54922   10.76688
       H     6.19980  -18.21103   15.26235
       O     6.47888  -17.48520   14.72078
      H1     5.73401  -16.93488   14.72335
       H     9.03961  -14.09476   13.99369
       O     9.67301  -14.66593   14.43221
      H1     9.20404  -15.11746   15.18321
       H    15.58194  -18.91333   15.11607
       O    14.75300  -18.56527   14.88484
      H1    14.40031  -19.15040   14.20817
       H     8.15910  -11.54897   11.13146
       O     7.74998  -11.03267   10.43910
      H1     8.50111  -10.68240    9.98147
       H    12.85507  -13.57468   15.11523
       O    12.03271  -13.34968   15.59688
      H1    11.34181  -13.96309   15.28853
       H    11.58280  -11.76927   14.71076
       O    11.19485  -10.95037   14.37697
      H1    11.28842  -11.01031   13.40315
       H     5.15208  -13.72760   12.41251
       O     5.97328  -14.15302   12.59245
      H1     6.00440  -14.81822   11.85345
       H    16.36618  -15.97673   13.47261
       O    16.97256  -15.95526   12.73059
      H1    17.81768  -16.41439   12.92376
       H    10.58446  -16.02449   14.07931
       O    11.23041  -16.79578   14.06753
      H1    10.83345  -17.45090   13.49806
       H    14.86225  -12.36108   10.03052
       O    14.05993  -11.98467    9.70339
      H1    13.38372  -12.56711   10.12952
       H     9.40601  -18.92684   10.33411
       O     9.11050  -19.82129   10.37865
      H1     9.32189  -20.19103   11.25266
       H     7.04782  -16.78656   11.55865
       O     7.83525  -16.23517   11.71134
      H1     7.99175  -16.41218   12.63241
       H    16.57818  -13.02535   14.42491
       O    17.33220  -13.50593   14.14165
      H1    16.98537  -14.18400   13.50307
       H    11.64161  -11.27678   10.45429
       O    11.62109  -10.73046   11.23474
      H1    12.56492  -10.54980   11.35331
       H     7.82226  -16.61615   15.55991
       O     8.46719  -16.27212   16.19909
      H1     7.98661  -15.73027   16.85682
       H    10.05066  -17.14753    9.47080
       O    10.04465  -17.30804   10.41758
      H1     9.24242  -16.82617   10.76657
       H    16.41183  -17.48449   12.05293
       O    16.39955  -18.42537   11.73037
      H1    15.52565  -18.78009   11.78999
       H    14.08688  -13.10405    7.40916
       O    13.73926  -13.75716    6.79940
      H1    14.11858  -14.56068    7.12763
       H    14.37840  -14.48492   14.31463
       O    14.01412  -13.66516   13.93991
      H1    14.60446  -12.96378   14.29389
       H    17.36082  -17.22807    9.06165
       O    17.93939  -17.83687    9.58568
      H1    17.28374  -18.16882   10.23951
       H     7.88551  -12.02598   13.30140
       O     8.41482  -12.71032   12.77864
      H1     7.69944  -13.39581   12.61706
       H    11.95320  -14.58845    9.33471
       O    11.81228  -14.92808    8.42869
      H1    12.48259  -14.38247    7.91704
       H    10.51308  -18.46578   16.57957
       O    11.26875  -18.72916   16.05601
      H1    11.43523  -17.94852   15.49780
       H    12.82570  -16.41500    8.22934
       O    13.57204  -16.96596    8.08427
      H1    13.49918  -17.63761    8.76107
       H    12.56971  -14.62616   11.23929
       O    12.39334  -13.71248   10.96574
      H1    11.97009  -13.40921   11.81298
       H    16.39920  -13.27233   10.59030
       O    16.22057  -14.24752   10.49101
      H1    15.59818  -14.63092   11.10699
       H    14.27058  -18.61866    5.46452
       O    14.33223  -18.84224    6.38727
      H1    13.83157  -18.14876    6.86185
       H    19.46636  -15.58435   10.49003
       O    19.10761  -14.79282   10.91453
      H1    18.17786  -14.73149   10.62635
       H    15.80523  -16.04441   15.63081
       O    15.21985  -15.95108   14.90050
      H1    14.79705  -16.86483   14.90007
       H    17.63755  -15.79621    7.22771
       O    18.39419  -16.36592    7.09540
      H1    18.01000  -17.17440    6.71108
       H    10.43440  -18.84319    4.77246
       O     9.62669  -18.43351    5.17587
      H1     9.87040  -18.08445    6.06812
       H     7.06325  -15.22723    8.61428
       O     6.89355  -14.63823    9.30296
      H1     7.44258  -14.93614   10.06594
       H    15.97909  -14.90489    8.74049
       O    15.88710  -15.41302    7.91549
      H1    15.15901  -16.00522    8.06527
       H     5.93263  -18.21401   12.69848
       O     5.74211  -18.04156   11.75951
      H1     4.84535  -17.65032   11.73620
       H     8.85954  -16.52366    7.51840
       O     9.72997  -16.75207    7.76905
      H1    10.27308  -15.95169    7.80800
       H     7.05774  -15.69014    6.41119
       O     7.21952  -16.31822    7.14041
      H1     6.39813  -16.68961    7.45098
       H    10.51215  -11.97100    7.82712
       O    11.12079  -11.48241    8.40575
      H1    11.66417  -10.93981    7.88036
       H    11.85424  -19.72057   12.95190
       O    11.11290  -19.20897   12.61745
      H1    11.15765  -19.28006   11.65678

