120
frame 3 | Written by MDAnalysis XYZWriter (release 2.4.3)
       H     5.47103   -5.20930  -15.29492
       O     6.31556   -4.64046  -15.05051
      H1     5.83951   -3.87454  -14.67634
       H    -5.04408  -11.84405  -16.02373
       O    -4.69917  -12.72075  -15.63925
      H1    -4.26222  -13.27605  -16.34086
       H    -3.62337   -1.99979  -17.15826
       O    -2.91916   -2.66934  -16.96313
      H1    -2.70562   -2.57015  -16.02812
       H     0.52684   -9.86538  -12.03719
       O     0.81602   -9.52926  -12.89868
      H1     0.53873  -10.16681  -13.61997
       H     3.12329   -5.27668  -12.29445
       O     2.73842   -4.97563  -13.19133
      H1     1.76728   -5.07090  -13.26045
       H    -2.05410  -11.28038  -17.29481
       O    -1.48139  -12.04000  -17.58192
      H1    -1.66466  -12.15343  -18.54823
       H     2.44183   -4.92604  -19.35582
       O     2.44884   -5.78128  -18.87813
      H1     2.98269   -6.30499  -19.46753
       H    -5.87907   -9.21869  -14.64840
       O    -5.92744   -9.86195  -15.36055
      H1    -6.84635  -10.02250  -15.53215
       H     4.73998   -5.08618  -18.77755
       O     5.56356   -5.40511  -18.41681
      H1     6.22129   -4.70795  -18.35743
       H    -1.94679   -2.55690  -13.92393
       O    -1.24506   -2.70659  -14.47561
      H1    -0.84387   -3.54902  -14.22721
       H     2.42235  -11.19269  -17.63133
       O     2.08965  -10.64636  -16.90946
      H1     2.82007  -10.09562  -16.51865
       H    -3.58067   -5.82865  -16.78269
       O    -4.20124   -5.08494  -16.64687
      H1    -3.77616   -4.25608  -16.91327
       H    -2.54915  -13.82465  -17.20726
       O    -3.32161  -14.33987  -17.41337
      H1    -3.13816  -15.26319  -17.25932
       H     1.19733  -13.46116  -15.85584
       O     0.72954  -13.51902  -16.67758
      H1    -0.15741  -13.09911  -16.57680
       H    -4.96132   -1.76853  -18.69766
       O    -4.84859   -1.23253  -17.89758
      H1    -4.72630   -0.33625  -18.17492
       H    -7.21746   -6.70044  -17.62010
       O    -7.67849   -7.23479  -16.89850
      H1    -8.41300   -6.65670  -16.64528
       H    -4.04773   -9.52389  -17.05340
       O    -3.23103   -9.45803  -16.56423
      H1    -3.41080   -9.37478  -15.58689
       H    -1.24313   -7.75038  -14.67051
       O    -1.02565   -7.50304  -13.74736
      H1    -0.41323   -8.16561  -13.38027
       H     2.44446   -9.05666  -18.89005
       O     1.99608   -9.23078  -19.73674
      H1     2.61111   -9.10538  -20.48397
       H    -3.54178   -7.97504  -13.97190
       O    -3.25632   -8.87227  -14.01061
      H1    -2.31187   -8.74984  -14.02965
       H    -5.14489  -11.69535  -18.41921
       O    -4.74903  -10.83049  -18.54020
      H1    -5.52080  -10.34747  -18.91402
       H     5.53429   -8.55104  -17.00879
       O     5.94430   -8.24021  -17.87314
      H1     5.90546   -7.27521  -17.86642
       H     3.19193  -13.27890  -18.40372
       O     3.74563  -13.96849  -18.14733
      H1     4.01415  -13.94112  -17.20613
       H     1.30696  -12.14066  -19.01711
       O     2.16066  -11.78503  -19.29646
      H1     2.00595  -10.83808  -19.38708
       H     1.85753   -1.69474  -14.17777
       O     1.08622   -1.22901  -14.67523
      H1     0.36037   -1.87757  -14.76098
       H    -1.54227   -5.22427  -19.09974
       O    -2.46287   -5.18859  -19.26953
      H1    -2.59007   -4.49629  -19.94014
       H     0.07533   -1.12877  -17.58541
       O    -0.86541   -0.80587  -17.75819
      H1    -1.51990   -1.53572  -17.55756
       H    -3.15799   -5.77605  -11.00843
       O    -2.53246   -6.44691  -11.33534
      H1    -2.48556   -6.42515  -12.30232
       H    -3.22723   -5.72865  -14.64822
       O    -3.76644   -6.24165  -14.01518
      H1    -4.73099   -6.13991  -14.34272
       H     4.47386   -8.30949  -15.33976
       O     4.38875   -9.15086  -15.80323
      H1     4.71879   -9.90490  -15.18405
       H     3.67537   -6.07281  -14.52559
       O     4.12451   -6.36286  -15.33425
      H1     3.54390   -6.06768  -16.05344
       H    -6.27358   -3.09055  -15.01547
       O    -5.64670   -3.72204  -14.73379
      H1    -5.30027   -4.23372  -15.45465
       H    -5.42494   -5.74194  -18.25760
       O    -6.13506   -6.22662  -18.73101
      H1    -5.75325   -6.78568  -19.40054
       H    -0.41543   -7.32323  -18.99316
       O    -0.19062   -6.69861  -18.27177
      H1     0.76612   -6.66950  -18.34789
       H     2.60726   -3.57018  -16.48972
       O     1.80323   -4.02829  -16.22178
      H1     1.34005   -4.41501  -16.97510
       H    -2.96905  -12.19137  -14.53242
       O    -2.02529  -12.32303  -14.31832
      H1    -2.07140  -12.22439  -13.35483
       H     3.12228   -2.01389  -17.05789
       O     3.89048   -2.67502  -17.14211
      H1     4.52415   -2.37956  -16.46444
       H    -2.40475   -7.91241  -16.43984
       O    -1.98054   -7.03002  -16.33686
      H1    -1.39799   -6.93926  -17.08575
       H    -0.00199   -5.88964  -14.00303
       O     0.26025   -4.97571  -14.04939
      H1     0.69803   -4.86216  -14.90523
       H    -0.70391  -11.09471  -15.08039
       O    -0.04191  -10.40757  -15.17913
      H1     0.69475  -10.63546  -15.79379

