120
frame 6 | Written by MDAnalysis XYZWriter (release 2.4.3)
       H    -5.03461   -8.94280    5.64035
       O    -5.52679   -8.32028    6.13371
      H1    -6.40859   -8.66673    6.27472
       H    -2.99350   -7.82452    0.64407
       O    -3.75278   -8.12471    1.15477
      H1    -3.98634   -7.28332    1.61535
       H    -6.56949   -7.31074   10.15191
       O    -7.46536   -7.49959    9.79371
      H1    -7.47304   -8.46932    9.76811
       H    -3.81941   -2.85019   11.72146
       O    -3.52655   -1.96777   11.36624
      H1    -3.46000   -1.51453   12.22812
       H    -8.16751   -5.85581    6.16542
       O    -8.47363   -4.93833    5.96639
      H1    -7.68141   -4.41022    5.88507
       H    -1.30595   -6.10928    6.24899
       O    -0.48188   -6.66308    6.33345
      H1    -0.90411   -7.51696    6.39822
       H   -10.37737   -5.28840    3.16371
       O   -10.32042   -4.91556    4.09853
      H1    -9.40077   -4.78073    4.38204
       H    -4.37610   -4.89179   12.74889
       O    -4.68567   -4.50487   11.90742
      H1    -4.49772   -5.26964   11.34095
       H   -10.79640   -4.83412    8.90267
       O   -10.18422   -5.56740    8.95638
      H1    -9.76738   -5.45155    8.09788
       H    -7.90062   -4.17440   11.80177
       O    -7.40248   -4.47968   12.56059
      H1    -6.47215   -4.36673   12.28506
       H    -3.95191  -10.73956    5.54625
       O    -3.56120   -9.94234    5.12911
      H1    -3.36673  -10.06635    4.18838
       H    -0.15067   -3.44155    8.30026
       O    -0.92008   -2.90263    8.54735
      H1    -1.02437   -2.24209    7.86393
       H    -8.21070   -4.59457    9.73749
       O    -8.09318   -3.64159    9.93761
      H1    -7.18687   -3.40416    9.76208
       H    -1.56544   -6.66574    9.50177
       O    -1.17878   -7.26228   10.23436
      H1    -1.60706   -6.81781   11.04520
       H    -5.64595   -6.72119    5.58136
       O    -5.59600   -5.69888    5.57934
      H1    -6.26138   -5.38330    4.95702
       H    -9.78237   -3.57674    6.33552
       O   -10.40374   -2.92518    6.65519
      H1   -10.90161   -2.65356    5.93007
       H    -7.83185   -1.79368    5.85246
       O    -7.50444   -2.42244    5.20199
      H1    -7.76918   -2.15793    4.33264
       H    -4.39028   -7.41684   11.27491
       O    -4.86894   -6.88951   10.65862
      H1    -4.53136   -7.12000    9.77365
       H    -2.06679   -4.88850   11.13597
       O    -1.72335   -5.17901   12.04506
      H1    -2.38024   -4.89862   12.64682
       H    -2.28881   -9.80724    6.56395
       O    -1.68592   -9.23086    7.02185
      H1    -1.24072   -9.73170    7.69159
       H    -1.62946   -1.13471   11.33077
       O    -0.81952   -1.28690   10.81529
      H1    -1.06396   -1.75784    9.99514
       H    -5.82550   -1.77083    9.05657
       O    -5.56823   -2.61787    9.48965
      H1    -5.02500   -2.29561   10.22936
       H    -8.96406   -6.65065   11.35016
       O    -9.27593   -6.60206   12.30016
      H1    -8.71567   -5.89062   12.68465
       H    -3.17470   -8.50525    7.82448
       O    -3.98990   -8.22779    8.24542
      H1    -4.64227   -8.12555    7.52264
       H    -5.66592    0.35471    6.58908
       O    -5.77290    0.78490    5.70500
      H1    -4.99087    1.30755    5.48833
       H    -2.04360   -4.22247    9.04194
       O    -2.29958   -5.04346    9.52882
      H1    -3.28966   -5.09195    9.47773
       H    -4.79772   -0.74773    5.20011
       O    -4.73232   -1.74720    5.06278
      H1    -5.71892   -1.93540    4.99080
       H    -6.17812   -4.73345    2.09363
       O    -7.00311   -4.55619    2.66120
      H1    -7.08502   -3.61285    2.83877
       H    -3.23027   -4.34639    5.86440
       O    -2.69942   -5.00491    6.30991
      H1    -3.28639   -5.31721    7.03114
       H    -3.18793   -5.87769    3.21592
       O    -4.02963   -6.33712    3.34137
      H1    -4.42264   -5.78562    4.01576
       H    -9.30688   -0.16440    7.26304
       O    -8.77375   -0.90403    7.07101
      H1    -9.25378   -1.66072    6.87801
       H    -5.18597   -3.96425    8.38970
       O    -5.05979   -4.93658    8.21699
      H1    -5.30546   -5.15134    7.26571
       H    -9.31342   -2.42870   10.65250
       O   -10.11826   -2.17393   11.14472
      H1   -10.19628   -1.22782   10.93500
       H    -5.96865  -10.25636    3.63718
       O    -6.40793   -9.45887    3.42684
      H1    -5.76817   -8.75844    3.27845
       H    -4.00816   -2.27973    3.70951
       O    -3.55496   -2.81118    2.94812
      H1    -4.03085   -2.39017    2.21385
       H    -7.30417   -0.29043    8.11321
       O    -6.37579   -0.26471    8.31603
      H1    -6.45353   -0.24727    9.30546
       H    -8.02906   -7.63638    7.97307
       O    -8.15273   -7.68880    7.03419
      H1    -8.55704   -8.56055    6.90740
       H    -3.25007  -10.57450    9.95516
       O    -4.10157  -10.62340    9.61329
      H1    -4.13277   -9.70876    9.21569
       H    -2.24500   -4.15444    2.97458
       O    -1.73344   -4.89713    2.60692
      H1    -1.09496   -5.21731    3.27962
       H   -11.22473   -2.80834    9.55987
       O   -11.76115   -3.34740    8.97162
      H1   -11.22057   -3.34722    8.13445

