120
frame 0 | Written by MDAnalysis XYZWriter (release 2.4.3)
       H    15.43687  -17.22989   -2.36886
       O    14.75625  -17.90508   -2.37816
      H1    14.98871  -18.46611   -1.54423
       H    14.17976  -16.81157    2.70103
       O    14.89097  -16.20582    2.34138
      H1    14.51360  -15.40172    2.74247
       H    11.57653  -13.17340   -4.22231
       O    10.76888  -13.20212   -4.74891
      H1    10.87376  -12.43933   -5.29914
       H    15.89134  -15.29118   -1.99341
       O    16.37836  -15.57496   -2.80029
      H1    17.26191  -15.79384   -2.40656
       H    10.34647  -15.52530   -2.71313
       O    10.73512  -15.66302   -1.87425
      H1    11.01453  -16.57268   -1.93084
       H    12.19611  -19.12436   -2.58506
       O    12.05092  -18.25108   -2.15702
      H1    12.88333  -17.80694   -2.35967
       H     6.43652  -19.57856   -8.42554
       O     7.13072  -18.95980   -8.34235
      H1     7.63602  -19.25137   -9.16760
       H    17.83160  -15.28705   -5.99426
       O    18.45542  -15.65137   -5.32150
      H1    18.40767  -16.60135   -5.42210
       H    13.67464  -18.85269   -8.06275
       O    14.67097  -18.97069   -8.05601
      H1    14.84159  -19.62012   -7.33815
       H     9.50566  -15.84651   -5.01057
       O    10.43083  -16.01555   -5.25274
      H1    10.96539  -15.21455   -5.05122
       H     9.31728  -16.38107   -7.78449
       O    10.25564  -16.75160   -7.83981
      H1    10.55027  -16.71075   -6.88267
       H    10.76764  -16.86303    0.76720
       O    10.40584  -16.06338    1.22450
      H1    10.32641  -15.36082    0.54225
       H    16.86779  -14.82310   -0.20081
       O    17.66549  -14.31915    0.03509
      H1    17.49548  -14.25533    0.98278
       H     7.89025  -16.41252   -3.86365
       O     7.72131  -15.83803   -4.65379
      H1     7.25609  -16.50745   -5.29238
       H     9.57276  -16.71206    2.95720
       O     8.83247  -17.28262    3.12767
      H1     8.38988  -17.33174    2.30737
       H    16.40140  -13.26499   -3.55806
       O    15.53454  -12.83493   -3.70398
      H1    15.84985  -11.92497   -3.83549
       H     7.42898  -17.04596   -0.75208
       O     7.46844  -16.46155   -1.48038
      H1     6.81639  -15.83084   -1.19042
       H    13.78740  -12.59114   -3.35982
       O    12.85357  -12.27222   -3.33278
      H1    12.60815  -12.56722   -2.38796
       H    17.51201  -18.10200   -0.87839
       O    17.08186  -18.79468   -0.30405
      H1    17.65718  -18.58863    0.48323
       H     8.19525  -14.26280   -7.20247
       O     8.08424  -15.10560   -7.58018
      H1     7.36875  -15.49551   -7.07489
       H    10.93467  -17.97607  -10.38427
       O    10.50233  -17.07256  -10.46705
      H1    10.43197  -16.71242   -9.59975
       H     9.87506  -20.14359    4.28978
       O     9.71006  -19.20930    4.65411
      H1     9.48290  -18.72179    3.85503
       H    13.15698  -19.01114    2.49222
       O    13.09106  -18.16781    2.96217
      H1    12.28989  -18.38573    3.49973
       H    16.78222  -18.23405   -5.60683
       O    17.71848  -18.55641   -5.54618
      H1    17.72263  -19.05118   -6.33832
       H    14.65969  -15.80788    0.48576
       O    14.86215  -15.48339   -0.41834
      H1    13.98345  -15.10388   -0.58468
       H     9.60472  -12.87088   -3.29943
       O     9.07890  -12.52422   -2.59494
      H1     8.10825  -12.62367   -2.93333
       H    10.54935  -18.80946   -3.90313
       O     9.58145  -18.81189   -3.84790
      H1     9.44173  -19.36460   -4.61331
       H    15.04280  -15.35739   -5.44541
       O    14.81082  -14.42948   -5.64522
      H1    14.93848  -13.94639   -4.81299
       H    11.45940  -15.95770    3.14886
       O    11.75954  -15.38708    3.89642
      H1    12.08119  -16.03313    4.56098
       H    11.71193  -13.81684   -8.34067
       O    10.75435  -13.86884   -8.56478
      H1    10.75956  -14.83426   -8.33246
       H    15.85519  -14.51217   -7.41830
       O    16.80224  -14.31444   -7.36531
      H1    17.00924  -14.05692   -8.26005
       H     9.49256  -13.21800    0.54845
       O    10.07777  -13.33278   -0.20005
      H1     9.44540  -13.25995   -0.95033
       H    13.66587  -12.77870   -8.24122
       O    13.34149  -13.57800   -7.82863
      H1    13.85143  -13.80601   -7.07135
       H    12.70177  -13.28030   -0.47553
       O    12.81933  -14.01348   -1.06838
      H1    11.93587  -14.42842   -1.08185
       H     6.57698  -17.66887   -7.17685
       O     6.11491  -16.92426   -6.77105
      H1     5.20241  -17.19864   -6.68927
       H    19.20623  -16.54938   -1.47597
       O    18.66605  -16.97706   -2.15144
      H1    19.23023  -17.41595   -2.75546
       H    15.98474  -16.45813   -4.14024
       O    15.51297  -16.95544   -4.86197
      H1    15.12378  -17.71087   -4.35525
       H     5.17125  -18.20262   -2.32289
       O     5.95300  -18.22516   -2.90176
      H1     6.67068  -17.75138   -2.49649
       H     8.28470  -18.50572    0.38241
       O     7.45292  -18.19359    0.79910
      H1     6.93293  -18.99289    0.63635
       H    10.61297  -18.61235   -0.08752
       O    11.43657  -18.26974    0.39770
      H1    12.00474  -18.26955   -0.42368

