120
frame 1 | Written by MDAnalysis XYZWriter (release 2.4.3)
       H    18.91610  -11.26497   13.18935
       O    19.38372  -12.00801   12.73873
      H1    19.29029  -12.69862   13.43297
       H     8.94521  -11.23697   10.89047
       O     9.52818  -11.94522   11.15608
      H1     8.97168  -12.64503   11.55728
       H    11.50897  -18.65333   12.02100
       O    11.98145  -19.22322   11.41982
      H1    11.73411  -18.84189   10.59369
       H     8.87380  -14.06684   14.27241
       O     9.58908  -14.66600   14.54699
      H1     9.09756  -15.34853   15.00669
       H    11.31032  -15.15302    3.33131
       O    11.59068  -14.71504    4.14551
      H1    11.98705  -15.46944    4.56782
       H    13.44503  -17.46053   15.03475
       O    13.31428  -17.86911   15.89214
      H1    12.48466  -17.53808   16.33072
       H     9.23054  -14.31141    6.30247
       O    10.13057  -14.46885    6.56883
      H1    10.58716  -14.48116    5.70595
       H    12.69391  -14.38005   15.54099
       O    11.84286  -14.42205   15.96087
      H1    11.06056  -14.45903   15.32347
       H    17.91582  -11.54584    8.32591
       O    17.27243  -11.27288    9.04087
      H1    17.46753  -12.02130    9.65959
       H    16.38141  -12.87564    5.51791
       O    16.53229  -12.99262    4.58841
      H1    16.82394  -12.19539    4.11542
       H    15.81138  -16.93008   12.71696
       O    16.42948  -17.11086   11.97622
      H1    17.34740  -16.87252   12.23495
       H    18.19344  -13.25364   11.50429
       O    18.26127  -13.29934   10.55585
      H1    19.06650  -12.85572   10.46712
       H    10.15425  -15.85905   13.15652
       O    10.41151  -16.76828   12.94113
      H1     9.86220  -17.30888   13.46753
       H    17.28986  -17.39702   15.10014
       O    17.90182  -18.16102   15.27833
      H1    17.38292  -18.98731   15.34102
       H    13.44533  -13.99353    9.51613
       O    13.39631  -13.13654    9.12487
      H1    12.47254  -12.88562    9.05328
       H    13.69338   -9.09008    9.86200
       O    13.79457   -9.71537    9.14848
      H1    13.44174  -10.50898    9.57549
       H    19.36603  -15.38860   13.55469
       O    19.45847  -14.60786   14.10066
      H1    19.20413  -14.91860   14.98047
       H    10.85850  -11.61471   12.46443
       O    11.39719  -11.45382   13.21494
      H1    12.22293  -11.92474   13.05816
       H     9.94620  -18.06662    7.32743
       O     9.20961  -18.67100    7.64130
      H1     8.85595  -18.22435    8.42787
       H    14.66171  -12.84975    7.64600
       O    15.47765  -12.72891    7.20462
      H1    16.02665  -12.19624    7.75295
       H    15.04673  -14.75620   14.13647
       O    14.19967  -14.35423   13.96423
      H1    14.43118  -13.55854   13.35370
       H    16.93633  -18.94342    8.03903
       O    17.20457  -19.85157    8.07026
      H1    16.89228  -20.07608    8.95668
       H    11.06614  -17.03993   17.92791
       O    11.14691  -16.84185   17.02034
      H1    11.33436  -15.89339   16.83210
       H    14.34469  -16.54613   11.01597
       O    14.14968  -15.96328   10.18925
      H1    15.06260  -15.83975    9.83022
       H    16.29796  -15.94600    4.38744
       O    15.56305  -15.38323    4.04731
      H1    16.01307  -14.53273    4.13228
       H     8.58946  -19.09488   14.99538
       O     9.36964  -18.53854   14.87794
      H1     9.50587  -18.18958   15.78493
       H    14.67106  -11.25368   12.24316
       O    14.30177  -12.12053   12.17037
      H1    14.58528  -12.37095   11.30392
       H    14.01010  -17.24818    8.58566
       O    13.78980  -17.86558    7.82298
      H1    13.72229  -18.74502    8.27306
       H    12.89321  -17.38900   12.56791
       O    13.69312  -17.05324   12.89341
      H1    13.66110  -16.12218   12.99661
       H    17.49017  -14.82695   10.01403
       O    16.88119  -15.42853    9.66230
      H1    16.91409  -16.12817   10.32377
       H    14.61698  -17.88662    4.45196
       O    15.12528  -18.26355    5.17677
      H1    14.50055  -18.24228    5.94091
       H    17.33614  -15.29365   15.40857
       O    16.56483  -15.74238   15.00714
      H1    16.00274  -15.83661   15.79154
       H    17.70904  -17.05261    5.19984
       O    17.89654  -16.71643    4.30679
      H1    18.24957  -17.46535    3.82056
       H    19.79263  -16.46893   11.75410
       O    19.11286  -16.63107   12.40315
      H1    19.37651  -17.48125   12.81733
       H     6.67176  -15.10680    8.72571
       O     7.24240  -14.87518    9.50960
      H1     7.62435  -15.71172    9.69287
       H    17.00003  -16.36476    7.61469
       O    17.28404  -17.10089    7.05308
      H1    16.42227  -17.44054    6.69485
       H    10.94162  -16.13562    7.07525
       O    11.23266  -17.03471    6.93340
      H1    12.04953  -17.18672    7.35416
       H    15.92965  -10.03723   10.62834
       O    15.98119   -9.75888   11.50980
      H1    15.61633   -8.86392   11.52625
       H    14.50402  -16.93751   16.85436
       O    15.12376  -16.45564   17.36609
      H1    14.71895  -15.65062   17.67186
       H    10.17044  -12.17744    9.41360
       O    10.67319  -12.23645    8.58360
      H1    10.36912  -12.96676    8.02675

