120
frame 4 | Written by MDAnalysis XYZWriter (release 2.4.3)
       H   -16.56083    4.65868    7.37765
       O   -16.40932    3.74403    7.69560
      H1   -15.93800    3.82718    8.55918
       H   -13.08986    0.91589    3.72894
       O   -13.84550    1.17109    3.16311
      H1   -14.54458    1.55782    3.75956
       H   -17.97573    2.96078    7.56199
       O   -18.76535    2.44111    7.40260
      H1   -19.48764    2.77519    7.91181
       H   -12.82478    3.47650   -1.59593
       O   -12.63541    3.81010   -2.48965
      H1   -12.62432    4.76621   -2.34593
       H   -14.91493    6.88253   -1.67805
       O   -14.42791    7.24275   -2.48809
      H1   -14.48519    8.22996   -2.56064
       H   -19.81494    1.16144    4.42460
       O   -19.05424    1.22389    3.83739
      H1   -18.85686    2.17641    3.78684
       H   -16.14528    3.04843    4.54125
       O   -15.60483    2.68337    5.22338
      H1   -16.13431    2.73875    6.00806
       H   -11.61274    0.40051    1.99531
       O   -11.24032    0.99547    1.30406
      H1   -10.45262    0.65491    0.92060
       H   -13.85958   -0.58884    2.79172
       O   -13.82251   -1.41053    2.27947
      H1   -14.30028   -2.12066    2.70810
       H   -11.71003   -1.19909    3.97363
       O   -11.49235   -0.27020    3.99521
      H1   -10.53865   -0.22564    4.25578
       H   -16.13939   -1.28863   -0.02641
       O   -16.76140   -1.09256    0.64261
      H1   -16.26730   -1.21887    1.44789
       H   -15.66110    3.23575   -3.83325
       O   -15.85099    2.78367   -3.04474
      H1   -14.98027    2.83433   -2.60332
       H   -12.44304    6.57811    7.27800
       O   -11.70858    6.20829    6.69467
      H1   -12.15611    5.86360    5.89012
       H   -19.41006    7.24401    3.82074
       O   -19.11105    8.12679    4.10184
      H1   -18.12193    8.01958    4.11863
       H   -15.19960    3.95423    2.82595
       O   -16.02298    3.78656    2.35877
      H1   -15.97662    3.04057    1.71745
       H   -14.21966    8.68620    0.27391
       O   -14.00937    9.50773   -0.19958
      H1   -14.69665    9.75800   -0.75596
       H   -13.03772    5.49233    3.41699
       O   -12.93905    6.33874    3.00582
      H1   -12.14186    6.43173    2.36890
       H   -10.65306    0.90679   -1.80583
       O   -11.48501    1.14554   -2.26046
      H1   -11.23571    1.57817   -3.11896
       H   -18.55730    4.92126   -2.10670
       O   -18.27262    4.37384   -1.33043
      H1   -17.48699    3.91718   -1.62846
       H   -19.59583   -1.92286    6.43498
       O   -18.93227   -1.23485    6.57684
      H1   -18.41408   -1.22917    5.73314
       H   -10.06352    4.05775    1.36918
       O   -10.86006    3.82313    0.83437
      H1   -11.05968    2.89319    1.01757
       H   -17.46075   -4.00304    3.54497
       O   -18.12921   -3.41592    3.09078
      H1   -17.70549   -3.23954    2.21906
       H   -18.23580   -0.22278    4.00538
       O   -17.67550   -0.98583    4.31743
      H1   -17.92743   -1.78266    3.82939
       H   -18.99380    4.32623    3.37651
       O   -18.36325    3.93945    3.95188
      H1   -17.57567    3.90918    3.40415
       H   -19.28591   -1.02129   -1.21005
       O   -19.13031   -1.59124   -0.47745
      H1   -18.29128   -1.34170   -0.06718
       H   -17.24282    7.52354    7.34761
       O   -17.41969    6.63978    7.12577
      H1   -18.41844    6.64809    6.96120
       H   -13.97592    3.77564    5.73215
       O   -13.72094    4.68156    5.45169
      H1   -14.05279    5.18892    6.23468
       H   -12.82318    1.51878   -1.13813
       O   -13.33635    1.70950   -0.30688
      H1   -12.67399    1.46744    0.34881
       H   -14.69222   -1.50533   -2.30378
       O   -15.52781   -1.49101   -1.84398
      H1   -16.00157   -0.91032   -2.41288
       H   -14.20703    6.89723    1.58294
       O   -14.94302    7.44122    1.29066
      H1   -15.60847    6.81319    0.94331
       H   -15.88951    6.67019    4.29930
       O   -16.34108    7.40984    3.89627
      H1   -16.00658    7.36540    2.96983
       H   -15.28509    8.06710    4.89071
       O   -14.71776    8.69816    5.39855
      H1   -13.82384    8.59058    5.04205
       H   -12.27754   -0.38479   -2.24508
       O   -12.84570   -1.23342   -2.31569
      H1   -12.59973   -1.75304   -1.50930
       H   -16.33376    0.77125    0.72917
       O   -16.15475    1.69754    0.57055
      H1   -15.32176    1.81381    0.15808
       H   -19.06648    3.41198    0.05006
       O   -19.28382    2.81676    0.77467
      H1   -18.40510    2.43331    1.06912
       H   -15.87962    1.17882   -3.70751
       O   -16.29610    0.28373   -3.92911
      H1   -15.72331   -0.13526   -4.57176
       H   -10.99308    5.71031    0.84779
       O   -10.93589    6.62977    1.05983
      H1    -9.96804    6.74135    1.25702
       H   -16.18896   -1.79115    5.63756
       O   -15.32866   -2.20188    5.73117
      H1   -14.78589   -1.50001    6.16683
       H   -18.39464    8.76067   -1.14072
       O   -17.47664    8.90896   -1.50644
      H1   -17.22148    9.73127   -1.14287
       H   -16.84840    5.14863    1.65188
       O   -17.22420    5.93374    1.23090
      H1   -17.58092    5.53848    0.40563

