120
frame 4 | Written by MDAnalysis XYZWriter (release 2.4.3)
       H    17.51167  -12.32754   -5.07912
       O    16.76517  -11.94349   -5.59270
      H1    16.93239  -10.99710   -5.64604
       H    17.66590  -15.91897   -8.94075
       O    18.57943  -15.70145   -8.68160
      H1    18.88372  -16.49787   -8.26483
       H    16.63800  -14.74684    1.07494
       O    16.78094  -13.80812    0.87249
      H1    16.66405  -13.77521   -0.12643
       H    18.82181   -9.06952   -8.29295
       O    18.35567   -9.86140   -8.14001
      H1    17.67352   -9.63617   -7.47235
       H    17.97495  -12.34414    0.31728
       O    18.35888  -11.61871   -0.22154
      H1    19.21668  -11.50536    0.25003
       H    17.15397  -10.53644    0.72335
       O    16.85254   -9.86269    1.39757
      H1    15.88486   -9.66681    1.44065
       H    14.01021  -17.03604   -5.49325
       O    13.41944  -17.69351   -5.08070
      H1    12.51997  -17.32977   -5.04100
       H    16.25074   -5.24590   -5.24662
       O    16.51487   -5.04990   -4.32876
      H1    15.87765   -5.24620   -3.68283
       H    16.14742  -11.46561   -3.78029
       O    15.56827  -11.77219   -3.02219
      H1    15.40135  -11.04625   -2.39722
       H    15.49036  -15.30167   -6.39283
       O    15.58826  -16.22683   -6.11906
      H1    16.00092  -16.77208   -6.77504
       H    18.54663   -6.52592   -0.92651
       O    17.89529   -5.80252   -0.84596
      H1    18.34244   -5.06222   -0.50265
       H    11.51033  -12.19768   -8.74916
       O    10.61629  -12.41284   -9.04634
      H1    10.56804  -13.36623   -9.00576
       H    13.22698  -11.23724   -9.90284
       O    13.24752  -10.99597   -8.92441
      H1    14.19409  -10.81366   -8.80614
       H    14.11208  -10.09968   -0.63622
       O    14.80764   -9.82921   -1.27209
      H1    15.08199   -8.90837   -1.05811
       H    12.09438  -12.12846   -4.74635
       O    11.30062  -11.57821   -4.69962
      H1    10.77370  -11.74650   -5.47709
       H    14.36768  -12.58212  -12.46518
       O    14.55145  -12.36314  -11.56741
      H1    15.39535  -12.81916  -11.47557
       H    16.49312  -14.46408   -2.42583
       O    16.71000  -13.80910   -1.74954
      H1    16.28321  -12.98829   -2.06388
       H    12.41972   -9.55360   -3.87922
       O    13.18637   -9.08848   -3.57637
      H1    13.83175   -9.73153   -3.22297
       H    12.88681   -9.32615   -8.95999
       O    12.95951   -8.39108   -8.93143
      H1    13.45279   -8.32725   -8.15099
       H    14.09458  -13.67323   -6.23664
       O    14.85865  -13.61249   -6.82775
      H1    15.28251  -12.77231   -6.60131
       H    16.83377   -5.54476   -7.14458
       O    15.96340   -5.68831   -6.68851
      H1    15.46642   -4.91775   -7.08210
       H    13.86290   -8.13541   -5.17225
       O    14.00492   -7.87899   -6.09644
      H1    14.58922   -7.08378   -6.13267
       H    18.75992   -4.16571   -7.58442
       O    18.51317   -5.09923   -7.60280
      H1    19.19677   -5.54763   -7.05888
       H    19.61379  -12.92617   -9.20123
       O    19.37521  -13.49203   -9.98408
      H1    19.11925  -14.36653   -9.64458
       H    14.21827  -13.93543   -8.42789
       O    13.99613  -14.18161   -9.35294
      H1    13.70336  -13.34164   -9.82755
       H    13.01842  -13.95300   -3.78214
       O    13.48002  -13.27356   -4.31159
      H1    14.42537  -13.18746   -4.06275
       H    15.92189  -15.09194   -9.67012
       O    16.23653  -15.94532   -9.91597
      H1    16.81898  -15.76773  -10.68277
       H    18.35415   -8.07901   -3.70197
       O    17.91312   -7.51480   -4.38683
      H1    17.51682   -6.78413   -3.97102
       H    15.88708   -7.04713  -10.59149
       O    15.07408   -6.63547  -10.25803
      H1    14.46530   -7.32573  -10.04610
       H    19.16173  -13.14066   -3.87013
       O    18.49486  -12.58433   -3.51733
      H1    18.03872  -13.13325   -2.87785
       H    13.29876   -7.08721   -2.75242
       O    13.30968   -6.11742   -2.72434
      H1    12.63578   -5.84743   -3.36809
       H    18.09743   -6.33615   -8.51335
       O    18.09214   -6.97528   -9.21545
      H1    18.87428   -6.68901   -9.68096
       H    16.74007  -10.38761   -8.98909
       O    15.91036  -10.76672   -9.18563
      H1    15.93628  -10.75058  -10.15334
       H    15.91232   -8.93002   -6.35656
       O    16.77258   -9.25562   -6.01085
      H1    17.11782   -8.50007   -5.48269
       H    16.30624   -6.79087   -0.44839
       O    15.82658   -7.54160   -0.16471
      H1    16.42383   -7.98350    0.44013
       H    18.15428  -12.96498  -11.17257
       O    17.30611  -12.82345  -11.66911
      H1    17.54188  -12.98964  -12.58840
       H    15.59978  -16.18242   -4.19957
       O    15.92151  -16.05982   -3.27479
      H1    15.21945  -16.43918   -2.74180
       H    10.05522  -11.91217   -1.73899
       O    10.80809  -11.36247   -2.01622
      H1    10.92565  -11.57294   -2.95586
       H    18.96721  -10.81012   -3.29220
       O    18.76602   -9.93589   -2.85424
      H1    18.17786  -10.21667   -2.09903
       H    16.40025  -11.02418  -12.08207
       O    16.23348  -10.07713  -11.81670
      H1    15.54216   -9.81858  -12.45575

