120
frame 0 | Written by MDAnalysis XYZWriter (release 2.4.3)
       H    -5.20305  -13.11162  -15.19382
       O    -5.75943  -13.31423  -14.45930
      H1    -6.66636  -13.36218  -14.85806
       H    -0.91714  -15.17438  -11.48663
       O    -1.88305  -15.05977  -11.40057
      H1    -2.15866  -14.48347  -12.12355
       H   -11.78536  -15.32789  -13.08879
       O   -11.62585  -15.44152  -14.09642
      H1   -12.18418  -16.22978  -14.22614
       H    -9.02446  -13.09917  -14.46935
       O    -8.45022  -13.46220  -15.17165
      H1    -8.21632  -12.69277  -15.69952
       H   -12.73065  -12.44941   -9.13823
       O   -12.67803  -13.09493   -9.87179
      H1   -12.08657  -13.74059   -9.53131
       H    -6.25645  -18.38482  -11.57871
       O    -6.06088  -19.14493  -10.99098
      H1    -5.40052  -18.75065  -10.41375
       H   -10.81346  -17.87300  -10.10117
       O   -10.11215  -17.39374  -10.55016
      H1   -10.49617  -16.52305  -10.50876
       H    -5.92065  -18.72402  -15.37581
       O    -4.95865  -18.55777  -15.47009
      H1    -4.83475  -17.74468  -15.01193
       H   -13.97123  -17.68674  -14.43575
       O   -13.25735  -17.65531  -13.79977
      H1   -13.66889  -17.54388  -12.94137
       H    -8.91312  -17.38617  -18.22029
       O    -8.16665  -17.05530  -17.69750
      H1    -8.31499  -16.05803  -17.86351
       H    -6.45080   -8.97398  -13.87989
       O    -7.21411   -9.50181  -13.74292
      H1    -7.96156   -8.83498  -13.87963
       H    -6.92869  -14.30832   -8.46093
       O    -7.90190  -14.26638   -8.75714
      H1    -8.12105  -13.28152   -8.59197
       H    -2.79704  -10.93241  -11.04616
       O    -3.59166  -11.09478  -11.57763
      H1    -4.29925  -10.67381  -11.04699
       H    -8.93448  -14.91926   -7.34036
       O    -9.68189  -15.11531   -6.75062
      H1    -9.81229  -14.26726   -6.26966
       H    -4.76268  -15.19762  -14.01968
       O    -5.07176  -16.14268  -14.02220
      H1    -4.54332  -16.44224  -13.27703
       H    -9.65700  -12.18080  -13.01567
       O   -10.37684  -12.63764  -13.51147
      H1   -11.08108  -11.96445  -13.55149
       H    -9.67571  -13.93288  -16.61592
       O   -10.14404  -13.88610  -17.51552
      H1   -10.98231  -14.34149  -17.31925
       H    -5.90973  -11.31232  -10.48998
       O    -5.80028  -10.47220   -9.98519
      H1    -6.48426   -9.87798  -10.51426
       H    -6.91651  -11.04734   -8.22146
       O    -7.66928  -11.58034   -7.96000
      H1    -7.66323  -11.46144   -7.00212
       H    -5.74949  -13.69784  -11.57834
       O    -5.42210  -13.11567  -10.82247
      H1    -4.62082  -12.73734  -11.21813
       H    -6.44913  -16.85833  -13.32070
       O    -7.13217  -17.14795  -12.67306
      H1    -7.53682  -17.89586  -13.10431
       H    -7.79677  -15.39598  -11.77819
       O    -7.98207  -14.44261  -11.64999
      H1    -7.85380  -14.40108  -10.68143
       H   -12.92334  -14.14750  -11.21019
       O   -13.12961  -14.90158  -11.81135
      H1   -13.32190  -15.62774  -11.14549
       H    -8.71599  -17.80077   -9.25968
       O    -8.06910  -18.39664   -8.82079
      H1    -7.43792  -18.55079   -9.56252
       H    -3.75698  -12.27499   -6.27787
       O    -3.42794  -12.66548   -7.09997
      H1    -3.89429  -13.48784   -7.22126
       H   -10.21355  -19.25559  -16.90273
       O   -10.44172  -19.60969  -16.05601
      H1   -10.41383  -18.89424  -15.44868
       H    -7.57718  -11.18430  -12.71526
       O    -8.14419  -11.66991  -12.09497
      H1    -7.67366  -12.56212  -12.02674
       H    -9.54962  -10.40921  -10.13841
       O    -9.25361   -9.51108  -10.57559
      H1    -8.40035   -9.80139  -10.89572
       H   -10.84339  -12.49605   -9.96586
       O   -10.06478  -11.98146   -9.84334
      H1    -9.58611  -12.09263  -10.67813
       H   -14.43625  -17.95050  -10.75145
       O   -13.55201  -17.72321  -11.01271
      H1   -13.09632  -18.20371  -10.30852
       H   -13.20502  -12.80000  -15.37850
       O   -12.33010  -13.13406  -15.64280
      H1   -12.00259  -13.52877  -14.81534
       H    -9.47068  -17.98711  -13.72437
       O    -9.62098  -18.56540  -12.94766
      H1    -9.93211  -17.96648  -12.25170
       H    -7.47924  -18.00707   -7.18766
       O    -7.25958  -17.91981   -6.22340
      H1    -6.86784  -17.01900   -6.20199
       H    -4.62184  -15.81346   -8.45735
       O    -5.10217  -14.99744   -8.12234
      H1    -4.75120  -14.36267   -8.81969
       H    -5.94167  -17.12047  -17.45249
       O    -5.25853  -17.07271  -18.13683
      H1    -4.51674  -16.56303  -17.71880
       H    -3.52491  -16.72676   -9.76568
       O    -4.11452  -17.18234   -9.12438
      H1    -3.54576  -17.54447   -8.46264
       H   -10.90698  -15.11247   -8.34751
       O   -11.01606  -14.85510   -9.29162
      H1   -10.08916  -14.60039   -9.41413
       H    -8.82980  -16.68098  -15.81187
       O    -9.66000  -16.92625  -15.32269
      H1    -9.96410  -16.06775  -14.82199
       H    -5.44035  -15.42532   -6.02126
       O    -6.13215  -15.45511   -5.36310
      H1    -5.59704  -15.66606   -4.61403
       H    -2.83710  -18.27102  -12.27939
       O    -3.02922  -17.36149  -12.55631
      H1    -2.56068  -16.74311  -11.94044

