120
frame 0 | Written by MDAnalysis XYZWriter (release 2.4.3)
       H    -3.72895  -12.93577  -16.63078
       O    -3.84609  -13.86349  -16.77382
      H1    -4.11939  -13.87074  -17.68650
       H    -0.91714  -15.17438  -11.48663
       O    -1.88305  -15.05977  -11.40057
      H1    -2.15866  -14.48347  -12.12355
       H    -1.83568  -11.53431  -15.85956
       O    -2.72607  -11.57061  -15.49992
      H1    -2.63904  -12.27814  -14.82128
       H    -1.38461  -11.42313  -18.27666
       O    -0.81700  -10.80226  -17.80324
      H1    -0.10332  -10.78505  -18.46103
       H     1.87424  -15.11866  -10.26591
       O     0.93040  -15.02547   -9.99938
      H1     1.07675  -14.73924   -9.01671
       H     6.67395  -17.85099  -14.85826
       O     5.75458  -17.91111  -15.05202
      H1     5.47459  -17.08561  -14.62265
       H    -1.80858  -16.58882  -13.70782
       O    -1.28098  -16.09601  -14.43553
      H1    -0.45603  -16.05122  -13.97223
       H     4.50571  -15.02879  -14.23322
       O     4.71564  -15.73445  -13.61107
      H1     5.38272  -15.25416  -13.09832
       H     2.04915  -12.95138  -12.49683
       O     3.06358  -12.85889  -12.38315
      H1     3.29813  -13.07042  -13.32894
       H     1.06303  -17.80221  -18.47148
       O     0.21941  -18.16145  -18.78090
      H1    -0.29534  -17.98137  -17.95615
       H     1.82187  -12.22305  -17.89060
       O     2.59887  -12.36595  -17.37981
      H1     3.34972  -12.26144  -17.97149
       H     0.87029  -14.70761  -16.96120
       O     0.29527  -14.27432  -16.33357
      H1    -0.44361  -14.19200  -16.93092
       H     3.39584  -14.44500  -11.58493
       O     3.44728  -15.21076  -10.97435
      H1     3.45959  -15.97568  -11.54381
       H     1.52197  -17.21758  -14.03735
       O     1.05317  -16.82397  -13.34499
      H1     1.67663  -16.20760  -12.93975
       H     1.94566  -10.62437  -10.53664
       O     1.38317   -9.88647  -10.71545
      H1     1.96999   -9.06880  -10.76875
       H     5.49687  -14.58587  -11.51646
       O     6.45543  -14.70346  -11.79378
      H1     6.90814  -13.87483  -11.70364
       H    -1.85277  -14.18891  -14.28644
       O    -1.96217  -13.45439  -13.62796
      H1    -1.07518  -13.28476  -13.29848
       H     5.30364  -12.44401  -18.86245
       O     4.86411  -11.65032  -19.06549
      H1     5.38987  -10.95697  -18.56971
       H     2.44562  -16.27769  -16.88856
       O     2.24339  -15.72590  -17.71636
      H1     3.09456  -15.29557  -17.91945
       H    -0.97567   -9.05934  -16.81065
       O    -1.00122   -8.11460  -16.75789
      H1    -0.24344   -7.93829  -16.10485
       H     3.48415  -17.50784  -14.67812
       O     2.87649  -17.11069  -15.32895
      H1     2.66130  -17.89337  -15.90859
       H    -2.96790  -15.74398  -16.48892
       O    -2.84277  -16.59988  -16.91376
      H1    -2.86850  -17.19571  -16.15950
       H     2.75828  -18.45271  -10.99109
       O     3.57963  -18.49959  -11.49652
      H1     4.13591  -18.20881  -10.72350
       H     5.24465   -8.76618  -18.50728
       O     5.93612   -9.32275  -18.09527
      H1     5.51376   -9.69156  -17.24155
       H     9.39797  -14.13462  -15.97206
       O     8.75682  -14.57899  -16.53225
      H1     8.65072  -15.42967  -16.13789
       H     0.14407  -19.54252  -11.14254
       O     0.61666  -18.73577  -11.00357
      H1     0.45121  -18.30287  -11.85288
       H     6.54415  -13.36080  -15.56601
       O     6.05158  -12.91492  -14.81644
      H1     6.82269  -12.49031  -14.41711
       H     2.54819  -14.88965  -14.75124
       O     3.06918  -14.18328  -15.06893
      H1     2.45870  -13.78939  -15.70644
       H     7.59142  -15.11284  -19.63719
       O     7.13618  -14.38967  -19.10861
      H1     7.82589  -14.00807  -18.51766
       H     1.65884   -9.02997  -14.57674
       O     2.30779   -9.72387  -14.46401
      H1     1.75894  -10.43121  -14.10092
       H     5.25382  -17.21359  -17.01311
       O     5.44970  -16.95536  -17.90730
      H1     6.40875  -17.23966  -17.95578
       H     0.14552  -12.12203  -12.12653
       O     0.48397  -13.04704  -12.12527
      H1     0.63972  -13.04884  -11.18238
       H    -0.74962  -17.20708  -15.58163
       O    -0.23576  -17.83755  -16.19947
      H1    -0.13113  -18.55058  -15.50501
       H    -0.47163  -16.44357  -18.93937
       O    -0.95194  -15.62235  -18.87429
      H1    -1.76186  -16.05852  -18.45769
       H    -0.93307   -9.99821  -13.04169
       O    -0.15094  -10.51607  -12.96213
      H1     0.41505  -10.06877  -12.27704
       H     3.82935   -6.56860  -14.16201
       O     3.97031   -7.33662  -13.53440
      H1     3.52692   -8.07158  -14.02313
       H     2.56966   -9.53909  -17.05890
       O     2.02350   -9.02363  -17.65083
      H1     2.47113   -8.15352  -17.52678
       H     4.31460  -14.47657  -16.64969
       O     4.60950  -14.25578  -17.53358
      H1     5.24445  -14.96114  -17.83256
       H     4.54013  -11.25892  -15.90470
       O     4.51744  -10.32194  -15.86298
      H1     3.67148  -10.24430  -15.41155
       H     4.19572  -11.35255  -11.54204
       O     4.72550  -10.57143  -11.48806
      H1     5.53458  -10.99987  -11.78346

