120
frame 8 | Written by MDAnalysis XYZWriter (release 2.4.3)
       H    16.99138   14.18513   -4.26056
       O    16.02477   14.18641   -4.04069
      H1    15.67523   13.28570   -4.06508
       H     7.70135   10.97117   -1.69117
       O     6.78579   10.75873   -1.85726
      H1     6.60523   11.05103   -2.74943
       H    15.98757   11.24699   -3.83563
       O    15.69063   11.56822   -4.69290
      H1    15.00241   10.91585   -4.93610
       H    10.51890   11.09015   -7.82664
       O    10.90364   11.87626   -7.38833
      H1    10.54947   12.64748   -7.89486
       H     7.49458   12.31968   -5.62486
       O     8.27967   12.78606   -5.24378
      H1     7.97550   13.48989   -4.64300
       H    13.65587   17.23886  -10.85457
       O    13.39577   16.76432  -10.05438
      H1    13.16029   15.83481  -10.32791
       H    13.37625   18.90934   -0.54038
       O    14.03630   19.06225   -1.15464
      H1    14.29715   18.21699   -1.58418
       H    10.97985   11.40864   -3.94192
       O    10.11765   11.07358   -3.98912
      H1     9.63023   11.79709   -4.56142
       H    11.64734   10.25374  -10.05306
       O    12.60788   10.40231  -10.22381
      H1    12.90899   10.77623   -9.41393
       H    11.47671   17.57921   -7.52816
       O    11.65613   18.00087   -8.34236
      H1    12.34676   17.43819   -8.79290
       H     9.50172   16.54408   -8.72433
       O     9.20512   17.11226   -9.45530
      H1    10.03935   17.54510   -9.65286
       H     7.25670   19.03033   -5.20703
       O     6.97852   18.36473   -4.47787
      H1     6.90324   18.73575   -3.58012
       H    10.60758   18.31532   -2.38728
       O    11.18925   18.69491   -3.07013
      H1    12.07123   18.77430   -2.73079
       H    12.07237   11.58403   -2.38876
       O    12.62234   10.82977   -2.61946
      H1    11.98077   10.13663   -2.74388
       H     5.11847   16.12617   -8.08361
       O     5.22092   15.19705   -8.12648
      H1     6.12287   14.99060   -7.82819
       H     8.57324   14.80759    0.01792
       O     8.12312   14.04839   -0.39606
      H1     8.62075   13.25938   -0.16962
       H     6.35752   18.03474   -7.76873
       O     7.31732   18.09165   -7.55799
      H1     7.82274   17.89170   -8.37321
       H    14.45193   12.05368   -7.86696
       O    13.71885   11.42132   -7.86266
      H1    12.96345   11.86857   -7.50339
       H    11.41211   15.31308   -9.04932
       O    10.93461   15.07810   -8.26718
      H1    11.66870   15.11037   -7.66422
       H    12.38328   15.17556   -0.11598
       O    12.53737   14.59993   -0.89436
      H1    11.69204   14.69678   -1.43894
       H    10.25261    8.91293   -6.95913
       O    10.02404    9.05367   -7.88760
      H1     9.18471    8.59023   -8.10496
       H     6.44267   14.38218   -3.62842
       O     7.23014   14.96444   -3.95266
      H1     6.87397   15.75651   -4.40512
       H     9.35429   16.69983   -1.56186
       O     9.34807   17.57639   -1.22690
      H1     8.51371   18.00141   -1.56692
       H     9.92648   14.54615   -3.14519
       O    10.06720   14.50097   -2.18678
      H1     9.23881   14.24662   -1.74440
       H     5.70791   10.37317   -7.16648
       O     6.36081   10.73142   -6.48771
      H1     5.94355   10.81356   -5.63171
       H     9.53240   11.21496   -2.31632
       O     9.16479   11.59429   -1.49319
      H1     9.90489   11.69830   -0.84821
       H    15.67817   13.47072   -6.26759
       O    15.21507   13.73901   -7.09045
      H1    15.87784   14.21731   -7.58306
       H    13.91286   10.18170   -6.55869
       O    13.97925    9.82471   -5.70546
      H1    13.08788    9.79326   -5.37411
       H    10.67487   14.16436   -5.44543
       O    11.02356   14.67108   -4.75146
      H1    10.95800   15.57122   -5.07761
       H    13.10069   18.94879   -5.99149
       O    13.49707   18.18390   -5.61678
      H1    13.49343   17.57376   -6.37509
       H     7.55830   16.20815   -6.90730
       O     7.95607   15.35764   -6.87280
      H1     7.86429   15.05381   -5.98342
       H    10.95520   17.92554   -4.62154
       O    10.52899   17.42923   -5.38864
      H1     9.68274   17.90719   -5.47931
       H     7.84487   11.65211   -8.82825
       O     8.52757   11.09692   -9.23180
      H1     8.86305   10.38416   -8.66236
       H    12.07746   12.25021    0.93656
       O    11.37355   12.38857    0.29208
      H1    11.75024   13.14989   -0.20173
       H    11.30299   13.86005  -11.15658
       O    11.86722   14.59301  -10.86347
      H1    11.94290   15.14849  -11.68587
       H    14.12651   13.26297   -0.69340
       O    14.55083   12.75992   -0.03466
      H1    14.28733   11.89177   -0.32381
       H    10.80397   15.68630    1.17224
       O     9.89418   15.43020    1.12612
      H1     9.93184   14.49657    1.43891
       H    10.77017    7.81575   -5.08460
       O    11.04527    8.68935   -5.49549
      H1    10.50026    9.29770   -4.89649
       H    14.68884   17.83701   -4.18502
       O    15.07538   17.48561   -3.37306
      H1    15.08904   16.50784   -3.41870
       H    14.10004   15.00342   -6.47550
       O    13.26192   15.45010   -6.60477
      H1    12.68136   15.17096   -5.88347

