120
frame 0 | Written by MDAnalysis XYZWriter (release 2.4.3)
       H    -1.77808    0.46496  -14.07849
       O    -1.47146   -0.04014  -13.27592
      H1    -2.29822    0.06305  -12.73090
       H    -1.53849   -3.08477  -13.67188
       O    -2.14277   -2.49417  -14.10442
      H1    -1.71669   -1.63223  -13.84486
       H     1.83367    2.11723   -8.88137
       O     1.15500    2.80149   -8.99998
      H1     0.74068    2.56452   -9.82303
       H    -1.53158   -2.81311   -5.58398
       O    -0.78283   -3.40529   -5.34307
      H1    -0.22447   -3.34748   -6.17729
       H     3.17923    2.23102  -10.74309
       O     3.89635    2.17434  -11.33388
      H1     4.02685    3.04616  -11.72917
       H     4.84127    0.55330  -13.39049
       O     3.86086    0.46858  -13.38848
      H1     3.70910    1.03860  -12.61879
       H     0.74710    3.50734  -13.33669
       O     1.31801    3.43560  -12.50564
      H1     1.03654    2.59567  -12.20013
       H     3.77228   -2.79519   -9.09185
       O     3.46114   -3.68019   -8.84253
      H1     2.83696   -3.44038   -8.12791
       H     0.52451   -2.69104  -12.10120
       O     0.07430   -2.87275  -11.28079
      H1     0.36169   -3.74991  -11.02368
       H     2.52867    1.09923  -14.77446
       O     1.87487    1.68381  -15.14785
      H1     2.06612    2.48320  -14.55701
       H    -0.12116    0.49709  -11.77530
       O    -0.01162    1.25968  -11.17149
      H1    -0.75053    1.83749  -11.34212
       H    -2.96244   -5.98880  -12.43694
       O    -3.33722   -6.52165  -11.67819
      H1    -3.92807   -5.90415  -11.27944
       H     0.63327   -2.17784   -8.49555
       O     0.40036   -1.27406   -8.79871
      H1    -0.19044   -1.42290   -9.55887
       H     2.62295   -3.15504   -5.78620
       O     2.24381   -2.70641   -6.55323
      H1     2.56060   -1.83010   -6.41656
       H     2.03335   -4.35610  -10.11621
       O     1.35604   -4.98407  -10.54900
      H1     0.72117   -5.13997   -9.84990
       H    -0.55171   -7.83390  -11.90230
       O    -0.05767   -7.33424  -12.51428
      H1     0.86297   -7.68272  -12.41602
       H     3.88415   -4.44979  -15.24735
       O     3.74137   -5.37114  -15.28146
      H1     2.78309   -5.43174  -15.19935
       H     2.07772   -6.63891  -10.90298
       O     2.45794   -7.50552  -11.21551
      H1     3.12748   -7.23565  -11.89551
       H    -0.64295   -2.82976  -16.87560
       O    -1.32126   -3.39933  -16.52936
      H1    -1.63996   -2.84818  -15.79061
       H     2.92341   -2.09034  -12.18819
       O     3.86042   -1.99492  -12.15919
      H1     3.92142   -1.08512  -12.50923
       H     6.32115   -2.57841  -10.33230
       O     5.71013   -1.81411  -10.20294
      H1     5.03683   -1.95162  -10.92896
       H    -1.10153   -4.55351  -12.04967
       O    -1.11413   -4.93050  -12.91836
      H1    -0.53062   -5.66132  -12.69910
       H     0.94138   -6.39764  -15.45451
       O     0.83303   -7.31599  -15.13051
      H1     0.21529   -7.32386  -14.39327
       H    -2.50712   -0.73897   -5.98397
       O    -1.96621   -1.19351   -6.65390
      H1    -1.35343   -0.45791   -6.75982
       H    -0.13000    1.75039   -8.07529
       O    -0.72535    0.98616   -7.88528
      H1    -0.35611    0.15398   -8.29905
       H    -4.64924   -0.28441  -12.38002
       O    -4.00128   -0.03721  -11.70043
      H1    -4.19027    0.91875  -11.42768
       H    -2.39478   -2.61801   -8.09343
       O    -2.26355   -3.19739   -8.86075
      H1    -2.58451   -4.05743   -8.58675
       H    -2.04266   -6.67749   -8.22999
       O    -2.77155   -6.11119   -7.86645
      H1    -2.51789   -6.05086   -6.94796
       H     4.58906   -2.46128  -13.55179
       O     4.99698   -2.70813  -14.38234
      H1     5.12940   -1.83134  -14.70999
       H    -0.65286   -4.14603   -8.40423
       O     0.24705   -4.25618   -7.97258
      H1     0.20033   -5.18793   -7.63088
       H    -2.04279   -7.01321  -10.61771
       O    -1.41511   -7.39636   -9.94950
      H1    -1.59262   -8.33176  -10.02652
       H     4.27977   -6.76713   -7.71978
       O     4.96093   -6.14948   -8.00336
      H1     4.43256   -5.33181   -8.06854
       H     2.12729   -0.17854   -9.12266
       O     2.87047    0.36900   -8.77941
      H1     2.83035    0.10010   -7.87000
       H    -3.99753   -3.03789  -13.78954
       O    -4.93695   -2.97629  -13.47403
      H1    -5.01605   -3.87070  -13.13331
       H     0.01632    1.84470  -15.84241
       O    -0.58181    2.03513  -16.61139
      H1    -1.39814    1.60523  -16.24727
       H    -4.44634   -0.85331  -10.42042
       O    -4.51105   -1.40197   -9.60696
      H1    -3.85935   -2.16643   -9.70213
       H     3.82935   -6.56860  -14.16201
       O     3.97031   -7.33662  -13.53440
      H1     3.52692   -8.07158  -14.02313
       H    -0.09825    0.09517  -16.48988
       O     0.27060   -0.72545  -16.83300
      H1    -0.27483   -0.96005  -17.61621
       H     1.06616   -4.71223  -16.60251
       O     0.92856   -4.72328  -15.62399
      H1     0.11378   -4.20901  -15.57013
       H     1.50843   -3.04671  -14.68000
       O     1.43282   -2.32053  -13.97563
      H1     1.23503   -1.58943  -14.56353

