120
frame 6 | Written by MDAnalysis XYZWriter (release 2.4.3)
       H    -0.82731    9.16774    9.32679
       O    -1.50430    9.71332    8.89003
      H1    -2.30741    9.42545    9.19708
       H    -7.85093   13.14784   14.67109
       O    -8.04224   12.91783   15.64405
      H1    -8.69385   13.52664   15.85631
       H    -9.20630   10.47470   14.10032
       O    -9.64111   10.91310   14.82394
      H1    -8.98943   11.51498   15.22335
       H    -9.41350    8.71838    7.55118
       O    -8.57339    8.37505    7.85369
      H1    -8.77602    7.73034    8.45725
       H   -11.18417    8.74949   10.09727
       O   -10.97308    7.84934    9.81184
      H1   -10.50081    7.46170   10.57343
       H    -9.55281   16.40567    7.49384
       O    -9.60028   17.39475    7.54050
      H1    -9.41739   17.52269    6.61965
       H   -11.07578   16.21044   12.06795
       O   -10.78198   15.44376   11.51448
      H1   -11.52243   14.80068   11.67708
       H    -6.54337   13.56920    7.96043
       O    -6.34443   14.08681    8.76209
      H1    -7.08476   14.67446    8.96556
       H    -8.71656    9.57438    9.51828
       O    -8.54735   10.36668   10.10364
      H1    -8.51050    9.97193   10.95623
       H   -11.49450    9.39988    6.29330
       O   -10.51700    9.41120    6.28859
      H1   -10.16148    9.26407    5.43967
       H    -9.28436   13.96191   12.99651
       O    -8.30530   13.85741   13.10390
      H1    -7.98281   13.17883   12.45331
       H    -4.66634    8.40107   10.02829
       O    -5.16687    7.93685    9.37782
      H1    -5.21310    8.59548    8.61564
       H    -5.87437   11.72133   12.93866
       O    -6.66036   11.60946   12.36600
      H1    -6.30808   11.68483   11.44131
       H    -6.35745    7.51983    4.76217
       O    -6.20696    7.85239    3.83683
      H1    -5.25461    8.13501    3.79568
       H    -1.26638   11.91239    9.31482
       O    -0.80253   12.68029    9.58927
      H1    -0.93473   13.17802    8.76795
       H    -7.63200    5.43312    9.41552
       O    -7.64783    4.72290    8.73694
      H1    -6.87746    4.84268    8.23838
       H    -4.83681    9.82213   12.03974
       O    -4.08779    9.62720   11.48619
      H1    -3.29969    9.71622   12.07228
       H    -6.39521    6.27246    6.60879
       O    -7.05980    6.86009    6.18244
      H1    -7.55121    7.13853    6.94453
       H   -11.16995   15.53977    9.29487
       O   -11.71416   16.00503    8.64995
      H1   -11.02059   16.63404    8.22183
       H    -7.85796    7.21001   14.74028
       O    -7.04005    7.35106   14.24323
      H1    -6.41545    7.66039   14.93005
       H    -5.06591    6.49505    8.26397
       O    -5.15258    5.68519    7.70929
      H1    -4.43063    5.58705    7.08225
       H    -3.53104   15.52495   12.28136
       O    -3.68958   15.97043   13.11117
      H1    -3.06507   16.70815   13.05113
       H   -11.78430   12.08908    5.07831
       O   -11.53135   12.97819    5.26566
      H1   -11.06281   12.84768    6.16503
       H    -4.53217    9.31742    6.41310
       O    -5.26551    9.54722    7.08662
      H1    -6.04406    9.21465    6.56990
       H    -7.62926    8.71196   13.25123
       O    -8.19403    9.45163   12.86247
      H1    -7.56911   10.20456   12.94016
       H    -8.36818    9.49748    3.84746
       O    -9.26813    9.16408    3.82559
      H1    -9.11399    8.21031    3.95405
       H    -4.72933   15.29505    9.42473
       O    -4.05958   15.63733   10.07640
      H1    -4.35013   16.58366   10.08943
       H    -7.92457    6.68908   11.30673
       O    -7.71329    6.93166   10.37780
      H1    -6.81237    7.26187   10.26793
       H   -12.08663   10.14367    8.73186
       O   -11.64076   10.37717    9.54385
      H1   -12.40925   10.40432   10.18370
       H    -4.72911   12.58294   14.49817
       O    -4.81140   11.61198   14.37142
      H1    -5.21696   11.26919   15.16714
       H    -1.41144   10.31948    6.95835
       O    -1.42649   10.62096    6.08866
      H1    -2.28909   11.00132    6.02286
       H    -6.21494   12.52255    9.47591
       O    -6.08778   11.55658    9.66484
      H1    -6.89217   11.09728    9.45102
       H    -7.90988   15.32542   11.44197
       O    -8.14428   15.41800   10.51401
      H1    -9.07429   15.23937   10.57633
       H    -9.60209   12.08638    8.08592
       O    -9.45167   12.14316    7.11590
      H1    -9.90979   11.30983    6.91253
       H    -5.42118   16.60459    6.05610
       O    -5.33885   15.99344    6.78866
      H1    -5.81667   16.49095    7.47043
       H    -9.74829   11.94989   10.35096
       O   -10.04794   12.76317    9.87469
      H1   -10.90406   12.37912    9.68387
       H    -6.12508   11.35470    7.12187
       O    -6.52476   12.19245    6.84101
      H1    -7.46447   12.05564    6.97416
       H    -3.93575   15.10903    6.21775
       O    -3.11374   14.67096    5.95457
      H1    -2.95536   15.04770    5.07396
       H    -2.32054    7.89481    5.92812
       O    -3.01701    8.44360    5.57959
      H1    -2.57345    9.27224    5.27370
       H    -3.65726   12.95681    5.48578
       O    -3.82907   11.99720    5.43991
      H1    -4.74649   11.98271    5.69689

