120
frame 7 | Written by MDAnalysis XYZWriter (release 2.4.3)
       H   -10.30045  -16.90311   -4.16354
       O    -9.34882  -16.91675   -4.21085
      H1    -9.20993  -16.99778   -3.26493
       H   -14.61384  -14.25401   -0.72281
       O   -15.26167  -13.66188   -1.10049
      H1   -16.13325  -14.06347   -1.01871
       H    -7.48446  -16.01385    6.10737
       O    -6.73278  -16.20029    5.56445
      H1    -7.13088  -16.55331    4.74012
       H   -10.45416  -18.85998    5.85293
       O    -9.64328  -18.73012    5.35162
      H1    -9.19392  -19.56042    5.16250
       H   -10.13365  -17.47582    1.98669
       O    -9.28803  -17.77302    2.25292
      H1    -9.50113  -18.28077    3.05232
       H    -8.29231  -12.06932    6.46009
       O    -8.72917  -11.92533    5.62224
      H1    -9.27020  -12.71841    5.47566
       H   -10.13617   -9.53391    2.81705
       O   -11.01376   -9.51049    3.20628
      H1   -11.45477  -10.32008    2.84082
       H   -17.96968  -15.92066    4.23165
       O   -18.12094  -14.96625    4.03177
      H1   -17.26073  -14.56137    3.70803
       H   -10.49663  -14.48147    4.29080
       O   -10.34218  -13.56769    4.09371
      H1    -9.95094  -13.52059    3.21660
       H    -9.77936  -13.45659   -1.14790
       O    -9.43001  -12.55363   -1.06974
      H1   -10.14525  -11.93939   -1.17616
       H   -11.20612  -14.56424    7.58514
       O   -10.52263  -15.02339    8.05624
      H1   -11.02421  -15.64824    8.59383
       H   -15.47466  -18.72179    0.15611
       O   -15.13902  -17.77466    0.25682
      H1   -14.85895  -17.88704    1.12453
       H   -15.35907  -17.97973    3.22245
       O   -14.38706  -17.94438    3.13550
      H1   -14.05080  -18.76761    3.53402
       H   -11.82853  -19.25892    7.25497
       O   -12.08636  -18.60509    6.59198
      H1   -12.60446  -19.12020    5.94181
       H   -12.67571  -11.82948    4.23014
       O   -12.71790  -12.00405    3.27970
      H1   -11.88324  -12.54451    3.13351
       H   -13.24243  -14.39945    1.38778
       O   -12.80616  -13.70844    0.75170
      H1   -13.08527  -12.89875    1.20375
       H   -12.11901  -16.57590    1.91629
       O   -11.59804  -16.95612    1.22996
      H1   -11.27906  -16.24483    0.60634
       H    -9.45758  -16.86710    5.10950
       O    -9.71816  -16.02364    5.43451
      H1   -10.34826  -16.11884    6.19165
       H    -7.54940  -17.33953    2.60710
       O    -6.74828  -17.06848    2.98441
      H1    -6.53158  -16.30548    2.45238
       H   -12.43923  -11.82221    6.67067
       O   -12.61600  -11.11382    6.06453
      H1   -11.80083  -10.58247    5.99544
       H   -13.17204  -17.90137    7.69764
       O   -13.58737  -17.47543    8.48485
      H1   -13.97877  -18.20501    9.01405
       H    -6.96560  -12.75180    4.87677
       O    -6.39585  -13.49681    4.56949
      H1    -6.68677  -14.23150    5.13534
       H    -8.62296  -18.37860    7.04753
       O    -7.98236  -18.52288    7.77078
      H1    -7.39954  -17.80468    7.97556
       H   -14.88321   -9.81011    3.02009
       O   -15.35604  -10.46030    2.46240
      H1   -14.80726  -11.23592    2.54623
       H   -17.48192  -15.89637   -1.13678
       O   -17.56325  -16.79661   -0.75134
      H1   -16.72064  -17.08511   -0.37315
       H   -15.20292  -11.88774   -4.18931
       O   -14.44825  -12.45397   -4.01326
      H1   -14.63068  -12.82092   -3.15335
       H   -16.42565  -12.36213    2.92428
       O   -16.26398  -12.76358    3.80859
      H1   -16.85869  -12.26436    4.37050
       H    -7.47438  -15.63538    0.27885
       O    -6.89227  -15.17122    0.91910
      H1    -7.33924  -14.42770    1.36700
       H   -15.10086  -16.53482    7.28672
       O   -15.87607  -16.07795    6.89386
      H1   -16.17148  -15.57899    7.70238
       H    -8.38668  -12.12400    2.30129
       O    -8.53430  -12.91458    1.74410
      H1    -8.80613  -12.58167    0.87862
       H   -17.35797  -18.27269    5.04399
       O   -16.97394  -17.45071    4.70549
      H1   -16.37560  -17.06200    5.37856
       H   -11.24990  -14.93827   -1.52803
       O   -10.89701  -15.07584   -0.64915
      H1   -11.43422  -14.40902   -0.17857
       H   -13.24015  -13.26017    8.05605
       O   -12.70613  -13.42502    7.27531
      H1   -13.34902  -13.68255    6.61971
       H    -8.62114  -17.70765   -1.19665
       O    -8.42836  -16.79223   -1.37144
      H1    -7.56602  -16.79684   -1.86215
       H   -15.04952  -13.62912    4.81359
       O   -14.54244  -14.22297    5.41495
      H1   -15.11545  -15.00038    5.62356
       H   -12.28278  -17.22315   -2.52215
       O   -12.07949  -16.69206   -3.28999
      H1   -12.41486  -17.20074   -4.03298
       H   -13.58248  -16.24356    3.12142
       O   -13.07488  -15.43752    3.33561
      H1   -13.53298  -15.03193    4.08919
       H   -14.68330  -14.59240   -4.34421
       O   -14.87171  -15.37336   -3.86890
      H1   -14.03349  -15.63348   -3.48371
       H   -12.17058  -13.49230   -4.33935
       O   -11.73265  -13.87108   -3.56446
      H1   -11.89297  -14.82003   -3.75083
       H   -11.95218  -17.85895   -0.27387
       O   -12.53753  -18.26198   -0.90604
      H1   -13.35259  -18.05992   -0.49728

