120
frame 11 | Written by MDAnalysis XYZWriter (release 2.4.3)
       H    18.25814   -1.29064   12.56493
       O    17.65518   -1.06428   13.27213
      H1    18.08320   -0.98985   14.10872
       H    16.72344    7.09038   11.94602
       O    15.76630    7.17559   11.99346
      H1    15.38079    6.30828   12.28122
       H    15.33427   -2.23431   18.64730
       O    15.70123   -1.39880   18.32496
      H1    15.22220   -1.34348   17.49457
       H    18.92718   -3.28508   11.65199
       O    19.07106   -2.36946   11.32178
      H1    19.95271   -2.13490   11.60470
       H    15.78229    3.18785    8.45290
       O    15.63552    3.75725    7.70814
      H1    15.16872    4.48275    8.09713
       H    18.14941   -0.46190   16.75899
       O    18.67281   -0.90575   16.09328
      H1    18.42032   -1.85686   16.04590
       H    10.34108    3.67288   14.57870
       O    11.11671    3.24700   14.86408
      H1    11.58224    3.13825   14.04894
       H    13.78386    1.86079   13.03288
       O    12.95567    2.31508   12.91598
      H1    12.43032    1.63699   12.46440
       H    16.97060   -2.42863   10.89237
       O    16.21696   -2.12858   10.36398
      H1    15.84840   -2.86171    9.87596
       H    16.27252    3.86812   14.06124
       O    15.94223    4.42945   14.75537
      H1    15.48104    3.89123   15.44246
       H    14.61397   -1.59774   10.81024
       O    13.75335   -1.25340   11.18876
      H1    13.57141   -0.49154   10.61084
       H    15.85382    0.38912   13.20940
       O    14.90760    0.39322   13.27168
      H1    14.57725   -0.21946   12.56682
       H    13.48451   -4.02572   18.48289
       O    13.58600   -3.97690   17.52944
      H1    14.52493   -4.26384   17.48923
       H    16.43925    1.39205    9.49003
       O    15.75045    2.04105    9.76056
      H1    14.88256    1.59320    9.55459
       H    16.04374   -4.62881    8.86017
       O    15.31605   -4.41474    9.43082
      H1    15.59510   -4.69636   10.30258
       H    17.34499   -0.75528    9.03770
       O    17.75249    0.10744    8.90470
      H1    18.51118    0.16645    9.58415
       H    10.57638   -0.29650   12.03150
       O    10.80422   -0.32950   11.09731
      H1    10.09672   -0.80382   10.69022
       H    18.68672   -4.13854   15.99567
       O    17.91353   -3.57998   15.91901
      H1    17.49098   -3.68160   15.07031
       H    13.31708   -5.43927   13.37268
       O    13.16824   -6.07459   12.65708
      H1    12.57420   -6.69686   13.06812
       H    15.44887    1.61048   19.09783
       O    15.98781    2.36272   18.84616
      H1    15.73588    2.52420   17.94421
       H    18.11860    0.01062   19.80846
       O    18.34969   -0.65704   19.17405
      H1    17.57341   -0.78004   18.59974
       H    10.47324   -0.00439   16.83714
       O    11.19793   -0.67638   16.79858
      H1    10.82490   -1.47365   16.43676
       H    16.70266    2.58887   11.49398
       O    16.94531    2.77697   12.43739
      H1    17.93260    2.66049   12.40934
       H    18.46020    2.65480   18.09558
       O    18.68420    1.98031   17.42019
      H1    19.53132    1.63906   17.78044
       H    12.85137   -2.00183    8.46767
       O    12.46526   -1.28844    7.82553
      H1    11.56257   -1.44025    7.89970
       H    13.64452    0.78292   17.98022
       O    13.53939    0.68187   18.95452
      H1    13.85301   -0.13880   19.30256
       H    14.26418    5.26205   13.61864
       O    14.02842    5.12773   12.71660
      H1    13.83334    4.17096   12.67386
       H    13.00246    4.69013    9.69953
       O    12.33251    3.94799    9.83471
      H1    11.80169    4.08612    9.03573
       H    12.82166   -3.20540   14.30952
       O    13.29434   -3.96616   14.74870
      H1    13.45328   -3.65377   15.67521
       H    15.44693   -5.96287   16.43655
       O    15.94678   -5.19367   16.87266
      H1    16.67147   -4.91641   16.31784
       H    17.97682   -5.43549   12.20471
       O    17.39839   -4.89001   11.70606
      H1    16.95668   -4.42706   12.39032
       H    14.04373    2.03241   16.11944
       O    14.15661    2.94119   16.47299
      H1    13.32397    3.37184   16.52195
       H    12.77156   -0.13521   16.01607
       O    13.73232    0.20132   16.06612
      H1    14.03386    0.22976   15.10289
       H    15.21290   -3.39469   14.33133
       O    15.95071   -3.28780   13.74413
      H1    16.22166   -2.36188   13.62053
       H    11.27834    5.17267   11.11360
       O    11.15319    5.75609   11.91532
      H1    12.03673    5.63008   12.26891
       H    16.66480    6.35753   15.31114
       O    16.85943    7.27180   15.62008
      H1    16.56492    7.86740   14.92578
       H    12.62045    1.86868    9.78768
       O    13.13362    1.17957    9.37645
      H1    12.67596    0.55998    8.79183
       H     9.43398    0.61813   14.36819
       O    10.36800    0.57015   14.07092
      H1    10.67441    1.41627   14.40483
       H    11.63800   -1.25178   13.90614
       O    11.79665   -2.14040   13.55734
      H1    12.14394   -1.91839   12.71412
       H    18.70039    2.99797   15.83776
       O    18.79868    3.72543   15.20586
      H1    17.92933    4.08770   14.99654

