120
frame 7 | Written by MDAnalysis XYZWriter (release 2.4.3)
       H    16.68457  -14.43047    0.20712
       O    16.59040  -13.66540   -0.35266
      H1    16.62002  -14.01315   -1.28719
       H    11.23439   -2.34719   -0.50035
       O    11.38114   -2.32400   -1.45724
      H1    12.26816   -2.56839   -1.63023
       H    19.06594  -14.06297    0.41220
       O    19.63436  -13.33599    0.14381
      H1    19.82386  -12.89988    1.03093
       H    13.89632   -7.42556    3.67547
       O    13.79050   -6.83007    4.41586
      H1    14.62290   -6.75300    4.85931
       H    14.09562   -9.99646   -0.32838
       O    13.37588   -9.40053   -0.47827
      H1    12.74279   -9.93412   -1.02919
       H    18.50816   -9.86414   -0.77987
       O    18.23410   -9.34468   -0.01024
      H1    17.39431   -9.79501    0.28537
       H    18.50066   -5.76100   -4.22361
       O    19.43172   -5.89585   -3.95002
      H1    19.50166   -5.80624   -3.03984
       H    13.90580  -12.35625    1.41225
       O    14.26502  -12.19069    0.52416
      H1    15.12644  -12.69525    0.44344
       H    14.08845   -3.29862   -2.75125
       O    14.43618   -3.26909   -1.82459
      H1    14.38004   -4.19666   -1.57857
       H    18.44762  -12.14309    4.35856
       O    17.78701  -11.59588    4.76652
      H1    17.82588  -10.75740    4.24963
       H    16.80518  -11.54736   -4.32543
       O    16.56686  -11.05125   -3.51858
      H1    16.10409  -10.16216   -3.70143
       H    15.25347  -10.54435    1.30544
       O    15.85634   -9.76888    1.08802
      H1    16.21788   -9.41182    1.93934
       H    17.76610   -8.16158    3.16378
       O    17.14442   -8.89105    3.42399
      H1    16.52914   -8.36644    3.89541
       H    15.07761   -1.73206   -2.43474
       O    15.36868   -0.88030   -2.69254
      H1    15.10351   -0.23440   -2.00194
       H    12.63489   -6.51224   -1.11546
       O    13.17113   -5.74158   -0.89261
      H1    13.79287   -6.12755   -0.25856
       H    14.18104   -4.58780    4.24944
       O    14.24263   -3.81891    4.82775
      H1    15.20622   -3.61900    4.75047
       H    14.36143   -8.85994   -1.90606
       O    14.90650   -8.63626   -2.65851
      H1    15.53913   -7.98378   -2.33693
       H    12.09655   -8.44334   -0.97589
       O    11.42792   -7.78742   -1.24953
      H1    11.25935   -8.04763   -2.14118
       H    16.73786   -2.60916   -0.03211
       O    15.83867   -2.64808    0.44922
      H1    15.12784   -2.73349   -0.22046
       H    13.13948   -9.75652   -5.23883
       O    13.37813   -8.84945   -5.09183
      H1    13.87558   -8.75499   -4.23696
       H    19.53330   -3.47413    3.29560
       O    18.63808   -3.55106    2.90105
      H1    18.25010   -2.94708    3.53795
       H    16.86893   -4.25441   -3.87955
       O    16.71943   -5.14748   -4.23106
      H1    15.73132   -5.30093   -4.25186
       H    14.83081   -8.05402   -6.12023
       O    15.59802   -8.00795   -6.73025
      H1    15.86095   -7.10423   -7.00406
       H    11.99335   -5.12673    0.48941
       O    11.27618   -4.95149    1.08957
      H1    10.84627   -5.83775    1.10516
       H    18.18469   -1.73205   -3.66209
       O    17.58501   -2.45586   -3.74615
      H1    16.75348   -2.07830   -3.53326
       H    16.26901   -6.11742    0.02910
       O    15.58530   -5.73790    0.69039
      H1    15.92251   -4.84012    0.84940
       H    13.47615  -12.68817   -3.18642
       O    14.18114  -12.63558   -3.81479
      H1    14.68633  -11.88017   -3.49313
       H    15.17577   -1.00884    0.89505
       O    14.76238   -0.18185    1.03161
      H1    14.57532   -0.24057    1.96578
       H    19.33523   -6.41220    2.16568
       O    18.79658   -6.49831    2.96780
      H1    18.42350   -5.60010    3.09296
       H    19.32697   -2.16090   -0.77480
       O    18.71382   -2.51782   -0.10687
      H1    18.86782   -2.10351    0.75070
       H    13.90619   -5.80560   -3.31301
       O    14.10216   -5.97329   -4.26590
      H1    13.30613   -5.78821   -4.77433
       H    11.74295   -3.03486   -4.15717
       O    12.73783   -2.99235   -4.16310
      H1    12.89312   -2.39712   -4.92706
       H    13.42039   -9.13544    1.55620
       O    13.20312   -9.08572    2.49917
      H1    12.44067   -9.58409    2.69920
       H    16.80825   -8.99333   -6.09447
       O    17.44977   -9.70718   -5.88885
      H1    18.08955   -9.31192   -5.26622
       H    17.95518   -6.38272   -1.28306
       O    17.16525   -6.90862   -1.16954
      H1    17.43306   -7.58261   -0.56358
       H    18.23743   -3.55407   -5.56615
       O    18.49151   -3.66750   -6.44951
      H1    18.21259   -4.61122   -6.63549
       H    11.82259  -11.95659   -1.91312
       O    11.92867  -11.00459   -2.10868
      H1    11.09704  -10.75551   -2.56359
       H    18.13600  -11.05349   -2.64184
       O    18.83932  -11.17059   -2.00269
      H1    18.61537  -11.94027   -1.46232
       H    16.79924   -6.56207   -8.76942
       O    16.31947   -6.00163   -8.12449
      H1    15.52795   -5.71473   -8.59344
       H    11.82068   -8.57479   -4.42872
       O    11.11532   -8.26632   -3.80486
      H1    10.43929   -7.88454   -4.35048

