120
frame 0 | Written by MDAnalysis XYZWriter (release 2.4.3)
       H     1.83367    2.11723   -8.88137
       O     1.15500    2.80149   -8.99998
      H1     0.74068    2.56452   -9.82303
       H     3.17923    2.23102  -10.74309
       O     3.89635    2.17434  -11.33388
      H1     4.02685    3.04616  -11.72917
       H     6.46134    0.74189  -19.92166
       O     5.57346    0.70059  -19.51941
      H1     5.83346    0.65697  -18.52625
       H     4.84127    0.55330  -13.39049
       O     3.86086    0.46858  -13.38848
      H1     3.70910    1.03860  -12.61879
       H    10.21465   -2.65437  -13.87217
       O    10.01174   -1.79284  -13.46988
      H1     9.41774   -1.29764  -14.10014
       H     0.74710    3.50734  -13.33669
       O     1.31801    3.43560  -12.50564
      H1     1.03654    2.59567  -12.20013
       H    10.54650   -2.72959  -11.64510
       O    10.17643   -2.76301  -10.74566
      H1     9.23437   -2.81629  -10.84543
       H     3.77228   -2.79519   -9.09185
       O     3.46114   -3.68019   -8.84253
      H1     2.83696   -3.44038   -8.12791
       H     6.69271    2.09082  -13.85428
       O     6.47838    1.18885  -13.57599
      H1     6.92741    1.16944  -12.73271
       H     7.67206    0.36423  -14.84476
       O     8.46755   -0.19333  -15.06014
      H1     9.20770    0.40051  -14.93580
       H     0.52451   -2.69104  -12.10120
       O     0.07430   -2.87275  -11.28079
      H1     0.36169   -3.74991  -11.02368
       H     2.52867    1.09923  -14.77446
       O     1.87487    1.68381  -15.14785
      H1     2.06612    2.48320  -14.55701
       H    -0.12116    0.49709  -11.77530
       O    -0.01162    1.25968  -11.17149
      H1    -0.75053    1.83749  -11.34212
       H     3.79926    2.91794  -19.92565
       O     3.18749    3.18190  -19.19944
      H1     3.36299    2.43576  -18.60465
       H     9.71073    1.48964  -10.84387
       O    10.11360    2.26127  -11.25524
      H1    10.30655    2.72199  -10.43254
       H     3.88415   -4.44979  -15.24735
       O     3.74137   -5.37114  -15.28146
      H1     2.78309   -5.43174  -15.19935
       H     9.89943   -1.08499  -10.39587
       O     9.38237   -0.30991  -10.08820
      H1     8.54741   -0.22025  -10.54823
       H     7.99824    3.13361  -17.50133
       O     8.31759    3.83929  -16.89448
      H1     8.00865    4.61516  -17.42887
       H     2.10204    0.32411  -17.64764
       O     2.87641    1.00975  -17.51094
      H1     2.44046    1.58972  -16.91434
       H     2.92341   -2.09034  -12.18819
       O     3.86042   -1.99492  -12.15919
      H1     3.92142   -1.08512  -12.50923
       H     7.41328    4.35482  -14.85042
       O     6.89375    4.20304  -14.05054
      H1     7.60554    4.42595  -13.38723
       H     6.32115   -2.57841  -10.33230
       O     5.71013   -1.81411  -10.20294
      H1     5.03683   -1.95162  -10.92896
       H     5.29908    5.40119  -16.58266
       O     4.59817    4.92267  -17.02983
      H1     3.82330    5.47106  -16.69661
       H     4.04044    1.79812   -7.39228
       O     4.37313    2.63808   -7.69531
      H1     4.25686    3.19465   -6.88962
       H     4.58906   -2.46128  -13.55179
       O     4.99698   -2.70813  -14.38234
      H1     5.12940   -1.83134  -14.70999
       H     9.13074    5.30249  -11.73974
       O     9.05364    4.65214  -12.41607
      H1     9.12096    3.79896  -11.90009
       H    11.29142    0.84178  -14.85969
       O    10.57304    1.50288  -14.97835
      H1    10.81199    2.25856  -14.37365
       H     5.38103    2.75592  -16.91279
       O     5.93690    1.97016  -16.88653
      H1     5.57613    1.44625  -16.16709
       H     6.33686    1.26913  -10.20537
       O     6.91877    0.71820  -10.79783
      H1     6.58527   -0.11055  -10.42790
       H     4.71398    5.80370  -12.33590
       O     4.59407    4.86836  -12.15223
      H1     5.08270    4.49953  -12.93147
       H     5.46724   -2.07632  -19.05607
       O     5.34818   -2.68353  -18.27226
      H1     5.83994   -3.46568  -18.46657
       H     6.72465   -4.00075  -14.14402
       O     7.50452   -4.45959  -13.80759
      H1     7.96667   -3.72486  -13.43413
       H     1.67966    5.50815  -11.89676
       O     1.99882    6.38484  -11.60676
      H1     2.97857    6.13126  -11.55546
       H     2.12729   -0.17854   -9.12266
       O     2.87047    0.36900   -8.77941
      H1     2.83035    0.10010   -7.87000
       H     0.01632    1.84470  -15.84241
       O    -0.58181    2.03513  -16.61139
      H1    -1.39814    1.60523  -16.24727
       H     5.33306    2.98495   -9.23847
       O     6.01311    3.33960   -9.84455
      H1     5.68858    3.30007  -10.76133
       H     4.25833   -0.32005  -16.60925
       O     5.03262   -0.61869  -16.20509
      H1     5.24362   -1.46313  -16.69283
       H    -0.09825    0.09517  -16.48988
       O     0.27060   -0.72545  -16.83300
      H1    -0.27483   -0.96005  -17.61621
       H     9.50382   -0.91422  -16.83279
       O     9.67914   -1.44511  -17.62325
      H1     9.33484   -2.22445  -17.26908
       H     1.50843   -3.04671  -14.68000
       O     1.43282   -2.32053  -13.97563
      H1     1.23503   -1.58943  -14.56353

