120
frame 1 | Written by MDAnalysis XYZWriter (release 2.4.3)
       H     7.22544   10.72515   -9.24238
       O     6.95164   11.50222   -9.79771
      H1     6.52824   12.05246   -9.12014
       H     9.71647   13.20376   -8.38334
       O     9.16156   13.10089   -7.64562
      H1     9.58991   13.65384   -6.99138
       H     3.20197   10.80425  -12.04012
       O     3.57073   10.96958  -12.94214
      H1     4.47244   10.81431  -12.67926
       H     8.77373   15.40059   -5.03125
       O     9.49907   15.65924   -4.44491
      H1     9.20751   16.26645   -3.76095
       H     6.08855    8.66349   -4.52880
       O     5.56493    7.86300   -4.80709
      H1     4.64049    8.15024   -4.55155
       H     2.05525    8.54766   -8.60308
       O     1.38780    8.20516   -9.24312
      H1     1.47921    7.22301   -9.09570
       H     4.03479   11.88313   -1.40288
       O     3.61020   12.15942   -2.23568
      H1     3.08197   11.39682   -2.52826
       H     5.88213    7.56952   -6.36640
       O     6.16570    7.72587   -7.29914
      H1     6.12886    6.77926   -7.64129
       H     1.21252   15.44820   -6.56509
       O     0.61282   15.69850   -7.29971
      H1     0.11843   16.47101   -6.85717
       H     1.19468   10.32018  -11.80952
       O     1.63352   10.49704  -10.96233
      H1     1.61470    9.56219  -10.65889
       H     1.09330   14.73666   -2.88485
       O     0.75563   14.74263   -3.84691
      H1     0.32307   13.86227   -3.81677
       H    -0.41005   12.86675   -8.74470
       O    -0.66518   12.53722   -7.81427
      H1    -0.61707   13.41615   -7.38875
       H     3.43093   15.43133   -5.81130
       O     2.76172   14.75495   -5.69540
      H1     2.33824   15.14829   -4.89060
       H     4.40661   10.99478   -5.45283
       O     5.35475   10.79805   -5.64387
      H1     5.18173    9.84080   -5.73448
       H     5.00979   17.23147   -8.26883
       O     4.50549   18.05161   -8.26990
      H1     3.66257   17.71911   -8.63805
       H     3.77601   11.18144   -9.80604
       O     4.39194   10.41831   -9.80403
      H1     5.20008   10.90468  -10.05685
       H     5.00819   12.64243   -3.07220
       O     5.90232   12.76085   -3.47596
      H1     5.83333   12.02391   -4.08669
       H     9.29893   11.44888   -5.56199
       O     9.06507   11.86958   -4.70360
      H1     8.45172   12.64829   -4.94923
       H     4.37756    8.66348   -7.81633
       O     3.48710    9.03316   -7.75100
      H1     3.53218    9.77439   -8.37731
       H     5.79445    8.19328  -12.02375
       O     6.67507    8.55972  -11.77836
      H1     6.32082    9.06318  -11.00010
       H     0.36683   11.81769  -10.53353
       O    -0.09433   12.65590  -10.33743
      H1    -1.02208   12.48428  -10.65009
       H     7.83741   10.56369   -3.83410
       O     7.51179    9.70547   -3.55006
      H1     8.35445    9.18633   -3.57006
       H     6.60281   16.21558   -8.69319
       O     5.83650   15.78137   -8.25813
      H1     5.87012   14.82770   -8.26630
       H     8.69657   11.78634  -11.12096
       O     9.62996   11.81334  -10.97940
      H1     9.70458   11.29930  -10.18200
       H     8.49856   15.01080  -13.17140
       O     8.31461   14.39844  -12.47225
      H1     7.36222   14.51388  -12.21541
       H     7.19438    8.85072   -8.13465
       O     7.87629    9.21983   -8.78439
      H1     8.60021    9.33211   -8.10227
       H     6.13166   17.24755  -10.20682
       O     7.07006   17.58799  -10.20942
      H1     6.98022   18.14919  -11.08159
       H     7.19687   13.95728   -6.54294
       O     7.55999   14.00965   -5.63232
      H1     6.71816   13.66756   -5.07984
       H     5.39905   13.84172  -12.17186
       O     5.77062   14.37526  -11.43020
      H1     5.15202   15.13243  -11.42069
       H     2.30286   12.94691   -8.65051
       O     3.16543   12.87171   -9.11689
      H1     3.07132   13.36863   -9.94184
       H     5.99633   12.13161   -7.18603
       O     5.70661   12.85568   -7.85274
      H1     4.76234   12.94286   -7.73798
       H    10.29421   10.19691   -7.03034
       O     9.37906   10.43170   -6.97137
      H1     9.28607   11.27824   -7.52997
       H     4.93417   17.15484   -4.72621
       O     4.36208   16.91949   -5.46217
      H1     4.91491   17.32306   -6.13654
       H     3.66492   17.21902  -11.85192
       O     4.50752   16.88099  -11.48323
      H1     5.07016   17.28149  -12.21837
       H     0.53287   11.02444   -4.39652
       O     1.04310   10.94401   -3.57520
      H1     1.16704    9.95134   -3.52174
       H     2.76813   12.99146   -5.37261
       O     2.81929   12.04753   -5.41476
      H1     2.04106   11.74519   -4.85418
       H     7.03569   17.61986   -5.15727
       O     6.60813   17.74299   -4.27531
      H1     6.35433   18.71149   -4.20438
       H     3.05324    8.89837   -5.98135
       O     2.87413    8.65309   -5.05966
      H1     2.22850    7.94706   -5.25957
       H     1.30283   16.82920   -8.53893
       O     1.79085   17.58203   -8.87734
      H1     1.83780   17.36395   -9.78284
       H    -0.16901   11.25496   -6.47973
       O    -0.55994   10.54226   -5.96221
      H1    -1.50229   10.76856   -6.07266

