120
frame 1 | Written by MDAnalysis XYZWriter (release 2.4.3)
       H   -14.69875   -3.57430   -3.46350
       O   -15.41750   -3.01116   -3.04272
      H1   -15.23323   -3.25694   -2.08726
       H   -17.11401   -0.89127    6.05599
       O   -17.36769   -1.78755    6.01469
      H1   -18.02264   -1.79227    6.72088
       H   -17.21087   -7.08745   -0.02207
       O   -17.08585   -6.24368    0.47882
      H1   -16.52352   -6.60441    1.17526
       H   -14.45174    1.09100    2.42425
       O   -14.20368    1.52683    3.23426
      H1   -14.73607    2.30517    3.31847
       H   -14.98201    1.66623    0.01696
       O   -15.21135    0.74067   -0.02911
      H1   -16.03406    0.74449    0.49287
       H   -14.92112   -0.01592   -1.87762
       O   -15.01875   -0.36246   -2.81266
      H1   -15.39356   -1.22041   -2.61521
       H   -13.96349   -4.00829   -0.16919
       O   -13.00236   -4.27781   -0.21021
      H1   -12.92331   -4.95209    0.51268
       H   -13.26152   -7.22607    4.57268
       O   -12.92098   -6.49544    3.99534
      H1   -13.75008   -6.04450    3.79905
       H   -18.19305   -2.43070    4.57220
       O   -18.57890   -2.87233    3.77142
      H1   -19.07908   -2.14495    3.38045
       H   -19.31936   -9.49381    6.74674
       O   -18.36095   -9.30339    6.88797
      H1   -18.21585   -8.49513    6.46036
       H   -13.31800   -0.10066    0.31539
       O   -13.16821   -1.04214    0.10763
      H1   -12.33652   -1.01452   -0.36499
       H   -19.20517   -4.32037    5.42275
       O   -19.03637   -5.08675    5.95257
      H1   -19.13834   -4.75900    6.90272
       H   -18.07662   -8.31097    4.18211
       O   -17.75560   -7.40596    4.30375
      H1   -18.23701   -6.78296    3.71557
       H   -16.33402   -7.71069    3.18540
       O   -15.74641   -7.28712    2.53658
      H1   -15.20534   -7.94768    2.11232
       H   -17.89516    0.02046    1.47172
       O   -17.26222    0.28743    2.18453
      H1   -16.82465   -0.56553    2.29715
       H   -16.12071   -4.59541   -0.11725
       O   -15.79463   -3.69061   -0.35194
      H1   -15.59481   -3.15955    0.44859
       H   -12.44955    0.60631    5.06195
       O   -12.31193    0.51629    6.04901
      H1   -11.88505   -0.36635    6.09291
       H   -15.95726   -5.40076    3.54294
       O   -15.79356   -4.66822    4.09372
      H1   -16.12918   -5.01941    4.95016
       H   -14.86258   -1.27018    1.20886
       O   -15.44389   -2.00660    1.59304
      H1   -14.97682   -2.34109    2.40603
       H   -17.92220    2.57215    1.81691
       O   -18.14386    3.28886    1.20738
      H1   -18.16060    2.94014    0.30349
       H   -14.71919    1.33272    8.04745
       O   -15.58934    0.98847    7.74282
      H1   -16.09711    1.83205    7.78449
       H   -18.70327   -4.37938    2.62341
       O   -18.96189   -5.29132    2.35794
      H1   -18.23877   -5.40197    1.78253
       H   -18.68100   -1.48604   -1.04234
       O   -17.80394   -1.37744   -1.30354
      H1   -17.43077   -2.11964   -0.79383
       H   -16.08224    4.20570    0.95629
       O   -15.15415    4.05719    0.89565
      H1   -14.79551    4.93158    0.81982
       H   -19.03063    0.26203    5.49232
       O   -18.83728    0.94471    4.82055
      H1   -17.87918    0.79800    4.73227
       H   -12.29852   -3.84436    6.70071
       O   -12.75451   -4.59000    6.39068
      H1   -12.53704   -4.70730    5.46602
       H   -16.19047    3.97497    3.86796
       O   -15.27651    3.99370    3.55607
      H1   -15.33616    4.11934    2.56135
       H   -12.40592   -2.13013    3.13171
       O   -11.73359   -1.70211    2.53246
      H1   -12.21083   -1.59063    1.73579
       H   -17.63796    0.89001    8.96407
       O   -17.97030    0.10452    9.37804
      H1   -17.34271   -0.57118    9.07767
       H   -15.56305   -3.53967    8.43421
       O   -16.07924   -2.76373    8.39620
      H1   -15.85973   -2.34295    7.55846
       H   -17.65192   -0.79420   -4.92449
       O   -17.65071   -0.11583   -4.22971
      H1   -17.13242   -0.52080   -3.50666
       H   -13.90001   -2.14648    4.82341
       O   -14.00794   -2.59602    3.99033
      H1   -14.37900   -3.46549    4.41227
       H   -19.12298   -3.62092    8.63307
       O   -18.64167   -2.94247    8.12796
      H1   -17.68413   -3.07090    8.46136
       H   -15.27184   -1.54525    6.07414
       O   -14.37439   -1.50154    6.45319
      H1   -14.33411   -0.54233    6.50782
       H   -16.74603    4.08844    7.20310
       O   -17.18012    3.18245    7.05192
      H1   -18.08048    3.38080    7.29048
       H   -17.40411   -5.34396   -3.54356
       O   -17.64362   -4.45088   -3.81394
      H1   -16.93839   -3.95088   -3.37125
       H   -16.35112   -5.91860    7.47165
       O   -16.38765   -5.38624    6.61412
      H1   -17.30682   -5.48899    6.34748
       H   -17.79865    0.38219   -0.90308
       O   -18.25839    1.04706   -0.36726
      H1   -19.17566    0.80403   -0.43480
       H   -17.78139    3.49020    5.39933
       O   -17.82587    3.78401    4.46561
      H1   -18.22780    4.61956    4.52568
       H   -15.41083    0.54260    4.29861
       O   -16.13062    0.45157    5.05535
      H1   -15.81437    1.12649    5.69526

