120
frame 11 | Written by MDAnalysis XYZWriter (release 2.4.3)
       H     8.90259   16.19275    3.17157
       O     8.64604   16.67722    4.00182
      H1     7.67608   16.62328    4.04831
       H     2.73045   16.78783   -3.33783
       O     3.32565   16.25683   -3.90919
      H1     2.88173   15.42318   -4.04365
       H     2.57494   18.19137   -2.02936
       O     1.86867   17.58594   -2.03875
      H1     1.07346   18.12037   -2.12686
       H     1.75336   17.08718    1.06870
       O     1.34920   17.74752    1.65256
      H1     0.42447   17.42539    1.48637
       H    14.13884   14.77025    3.52743
       O    13.40659   15.25205    4.01978
      H1    13.98852   15.99509    4.44328
       H     7.68950   14.50140   -5.06877
       O     8.34983   14.38383   -4.37317
      H1     7.82269   14.06260   -3.61782
       H    14.33491   17.74344   -0.82246
       O    15.18310   18.03192   -1.28183
      H1    15.12730   17.70467   -2.24012
       H     5.73663   12.95701   -1.62085
       O     5.08779   12.25287   -1.34379
      H1     5.50739   11.41408   -1.66471
       H    12.66971   18.80819    3.69582
       O    13.20357   19.04970    2.92492
      H1    13.19810   20.02625    2.98273
       H     7.68164   19.79632   -4.21825
       O     7.28783   19.25808   -3.53445
      H1     6.97501   19.76910   -2.82170
       H    11.10256   18.42740   -3.91619
       O    11.10530   18.21042   -4.88455
      H1    11.76483   18.88838   -5.20929
       H     4.68372   14.62098    2.12076
       O     5.54580   14.88903    1.72082
      H1     5.90152   15.51047    2.39822
       H     9.93652   15.21748   -0.12249
       O    10.24078   14.82414   -0.96291
      H1     9.88153   13.94803   -0.83175
       H     6.72083   19.05170   -0.37290
       O     5.86593   18.97329   -0.86776
      H1     5.85437   18.07541   -1.12973
       H    12.67943   15.84305    2.38060
       O    12.27865   15.54129    1.54230
      H1    12.22631   16.38557    1.05823
       H     9.06871   13.38614    5.04122
       O     9.05224   12.61069    4.43348
      H1     9.96591   12.46685    4.21256
       H    12.82494   14.17080    0.49558
       O    13.17921   13.25426    0.25432
      H1    13.20404   13.15055   -0.71112
       H     6.44884   18.95589    7.93213
       O     7.07759   18.33456    7.50253
      H1     7.29297   18.78339    6.66653
       H    16.65588   18.07687    2.16925
       O    16.25205   18.96762    2.14608
      H1    15.33082   18.75788    2.50390
       H     9.16486   15.05189    6.65484
       O     9.59506   14.98512    5.80932
      H1     9.04709   15.61610    5.26106
       H     8.51220   16.39048   -3.06952
       O     8.16102   16.84222   -2.28666
      H1     7.85660   17.72813   -2.73238
       H    10.83614   16.66987   -2.23023
       O    10.73877   17.62944   -2.28254
      H1     9.77499   17.60972   -2.34174
       H     5.07231   16.98378    4.09816
       O     5.87264   16.39651    4.05230
      H1     5.77995   15.74602    4.78006
       H    11.88685   14.49810   -3.51391
       O    12.31722   14.16339   -2.65553
      H1    11.59724   14.32711   -2.04746
       H     4.11660   18.07796   -3.86514
       O     4.11426   18.99092   -3.49905
      H1     5.06931   19.02625   -3.39141
       H    11.64864   18.30466   -0.00052
       O    12.56715   18.10887    0.32324
      H1    12.51963   18.27552    1.26680
       H    11.46070   17.72191    5.44277
       O    11.33394   18.27723    4.60692
      H1    10.53210   17.89322    4.27518
       H     9.97806   15.21023   -4.80479
       O    10.90100   15.43933   -4.65351
      H1    11.09920   16.40981   -4.82654
       H    11.05160   17.46779    7.29719
       O    11.53319   16.83049    6.78633
      H1    10.85831   16.14923    6.53286
       H     4.54861   15.55632   -0.82365
       O     4.98906   16.07627   -1.48204
      H1     4.51797   16.00115   -2.30069
       H     8.43387   17.92700    0.15790
       O     8.51761   18.88081    0.11186
      H1     8.60940   19.11456    1.03398
       H     2.19140   17.06506    2.97549
       O     2.62170   16.51837    3.67881
      H1     2.00154   15.77428    3.72647
       H     6.44915   19.33966   -7.55885
       O     6.47449   18.78222   -6.74772
      H1     6.13005   19.32678   -6.02843
       H     9.49670   18.45780   -6.23537
       O     9.12221   18.25823   -7.10077
      H1     8.28502   18.69956   -7.11821
       H    11.35023   12.66618    0.61954
       O    10.51949   12.14706    0.51842
      H1    10.82370   11.30616    0.83864
       H     6.59656   12.22256    1.44985
       O     5.91760   11.58360    1.30784
      H1     5.68189   11.73317    0.37569
       H     7.19731   14.96874   -1.58203
       O     7.15781   14.13229   -2.03657
      H1     7.65075   13.56155   -1.42329
       H    10.28780   15.30123    2.01160
       O     9.38735   15.65221    1.67695
      H1     8.80280   14.82227    1.79772
       H    12.43102   13.76252    3.44679
       O    11.94393   12.91595    3.53925
      H1    12.41474   12.21310    3.08314
       H     8.13513   13.03259    2.68214
       O     8.20419   13.17088    1.72866
      H1     8.93484   12.66829    1.40803

