120
frame 0 | Written by MDAnalysis XYZWriter (release 2.4.3)
       H     6.86218    9.13277  -12.76869
       O     6.75129    9.96065  -13.29260
      H1     7.64749    9.93954  -13.59991
       H    13.08062    0.01812  -19.30508
       O    13.06566    0.42481  -18.40718
      H1    13.98819    0.74551  -18.25451
       H    15.29946    5.01848  -19.24730
       O    14.56818    5.26170  -18.63121
      H1    15.00955    5.49886  -17.81046
       H    11.81157    5.00449  -17.33936
       O    10.84367    5.27150  -17.17923
      H1    10.38588    4.37804  -17.12552
       H    11.43299    9.06913  -13.35355
       O    10.80005    8.38783  -13.51491
      H1    10.95778    8.05547  -14.40499
       H     6.69271    2.09082  -13.85428
       O     6.47838    1.18885  -13.57599
      H1     6.92741    1.16944  -12.73271
       H     7.67206    0.36423  -14.84476
       O     8.46755   -0.19333  -15.06014
      H1     9.20770    0.40051  -14.93580
       H    10.21378   10.18429  -16.21365
       O    10.78193    9.76583  -16.88604
      H1    10.57936   10.36179  -17.65703
       H    13.42046    8.07271  -18.80433
       O    13.52562    7.48253  -19.58743
      H1    13.94234    6.72040  -19.18135
       H    13.90958    3.90096  -17.83947
       O    13.79096    3.40178  -16.99223
      H1    13.18029    2.80985  -17.33741
       H     9.38837    7.19032  -16.99928
       O     8.78091    7.92830  -16.64246
      H1     9.30783    8.67088  -16.91045
       H    13.95775    8.67394  -13.61291
       O    13.79595    8.77397  -14.58391
      H1    14.47843    9.46390  -14.73095
       H     9.71073    1.48964  -10.84387
       O    10.11360    2.26127  -11.25524
      H1    10.30655    2.72199  -10.43254
       H    14.54237    5.37997  -12.91003
       O    14.03131    6.20554  -12.95048
      H1    13.28065    5.90939  -13.51860
       H     7.99824    3.13361  -17.50133
       O     8.31759    3.83929  -16.89448
      H1     8.00865    4.61516  -17.42887
       H    11.54276    5.57527  -15.10152
       O    11.86217    5.24290  -14.24067
      H1    11.06408    5.20617  -13.74449
       H     8.69338    7.50901  -11.28520
       O     9.35520    6.86287  -11.02436
      H1    10.20529    7.19801  -11.46327
       H     6.51413    6.50125  -14.90257
       O     6.04707    6.93342  -15.64006
      H1     6.60635    7.59547  -16.06610
       H     7.41328    4.35482  -14.85042
       O     6.89375    4.20304  -14.05054
      H1     7.60554    4.42595  -13.38723
       H    12.16290    1.63806  -11.56481
       O    12.64906    1.15380  -12.20241
      H1    13.26037    0.69627  -11.65361
       H    15.57590    2.54436  -17.10014
       O    16.13204    1.69931  -17.05630
      H1    15.72907    1.03650  -16.53102
       H    13.28412    6.00687  -11.44111
       O    12.83961    5.84408  -10.54949
      H1    13.50971    5.22426  -10.16539
       H     5.29908    5.40119  -16.58266
       O     4.59817    4.92267  -17.02983
      H1     3.82330    5.47106  -16.69661
       H    17.49066    3.86904  -18.13686
       O    17.15031    4.44698  -17.41251
      H1    17.69604    5.24128  -17.66012
       H     9.78504    9.84649  -13.89612
       O     9.29766   10.57520  -14.39869
      H1     9.60955   11.37852  -13.86542
       H     8.92594    5.50054   -8.30900
       O     9.65291    6.01079   -8.56467
      H1     9.25144    6.26653   -9.46232
       H    13.98414    5.65754  -15.79240
       O    14.62129    6.34773  -16.04121
      H1    14.37003    7.16380  -15.62878
       H    11.42686    1.52115  -18.17730
       O    11.00506    2.24256  -17.63361
      H1    11.02174    1.89133  -16.72808
       H    12.32904    9.09544  -17.09236
       O    13.26114    9.05499  -17.42810
      H1    13.77732    9.05834  -16.60381
       H     9.13074    5.30249  -11.73974
       O     9.05364    4.65214  -12.41607
      H1     9.12096    3.79896  -11.90009
       H    11.29142    0.84178  -14.85969
       O    10.57304    1.50288  -14.97835
      H1    10.81199    2.25856  -14.37365
       H    12.50004    0.30524  -13.65126
       O    12.42996   -0.26279  -14.46962
      H1    13.19992    0.01481  -15.04024
       H    16.23600    9.10951  -12.31764
       O    17.07163    8.68776  -12.51129
      H1    16.94248    7.74787  -12.49344
       H    10.66687    4.79246   -9.11246
       O    11.03022    3.95577   -9.43268
      H1    11.73426    4.29931  -10.02803
       H    12.12420   11.59308  -12.50277
       O    11.63838   10.79930  -12.22060
      H1    11.20920   11.20043  -11.43539
       H    13.67666   10.43109  -12.32500
       O    14.63809   10.48971  -12.30047
      H1    14.74677   11.09249  -11.51997
       H     7.65829    7.14544  -17.81594
       O     7.48372    6.31356  -18.33734
      H1     7.72671    6.67786  -19.22948
       H    16.05785    4.14059  -13.89554
       O    16.09074    4.45375  -12.98859
      H1    16.24298    3.64335  -12.40026
       H    13.07752   11.14752  -16.56063
       O    13.21816   12.06034  -16.80459
      H1    13.20286   12.03534  -17.79932
       H    10.66230    6.17899  -18.71680
       O    10.92972    6.48971  -19.62519
      H1    11.88590    6.77111  -19.47340

