120
frame 0 | Written by MDAnalysis XYZWriter (release 2.4.3)
       H     4.84127    0.55330  -13.39049
       O     3.86086    0.46858  -13.38848
      H1     3.70910    1.03860  -12.61879
       H     7.15954   -6.22707  -11.30529
       O     7.96707   -6.13016  -11.79999
      H1     7.69389   -5.57838  -12.52470
       H    10.21465   -2.65437  -13.87217
       O    10.01174   -1.79284  -13.46988
      H1     9.41774   -1.29764  -14.10014
       H    12.88967   -1.63959  -13.85281
       O    13.13300   -2.53661  -13.42306
      H1    12.58143   -3.13149  -13.93182
       H    10.54650   -2.72959  -11.64510
       O    10.17643   -2.76301  -10.74566
      H1     9.23437   -2.81629  -10.84543
       H     3.77228   -2.79519   -9.09185
       O     3.46114   -3.68019   -8.84253
      H1     2.83696   -3.44038   -8.12791
       H     6.69271    2.09082  -13.85428
       O     6.47838    1.18885  -13.57599
      H1     6.92741    1.16944  -12.73271
       H     7.67206    0.36423  -14.84476
       O     8.46755   -0.19333  -15.06014
      H1     9.20770    0.40051  -14.93580
       H     7.52729   -5.80600   -7.36358
       O     7.62688   -4.82731   -7.61745
      H1     8.34240   -4.56025   -7.03420
       H    13.02334   -1.33149  -17.44229
       O    12.53410   -2.15228  -17.17465
      H1    11.58375   -2.01845  -17.29709
       H     9.71073    1.48964  -10.84387
       O    10.11360    2.26127  -11.25524
      H1    10.30655    2.72199  -10.43254
       H     3.88415   -4.44979  -15.24735
       O     3.74137   -5.37114  -15.28146
      H1     2.78309   -5.43174  -15.19935
       H     9.89943   -1.08499  -10.39587
       O     9.38237   -0.30991  -10.08820
      H1     8.54741   -0.22025  -10.54823
       H     9.32454   -9.26098  -14.01563
       O     8.96530   -8.58577  -14.58751
      H1     9.55510   -7.86742  -14.40340
       H     2.07772   -6.63891  -10.90298
       O     2.45794   -7.50552  -11.21551
      H1     3.12748   -7.23565  -11.89551
       H     2.92341   -2.09034  -12.18819
       O     3.86042   -1.99492  -12.15919
      H1     3.92142   -1.08512  -12.50923
       H    11.23407   -4.72335  -15.07224
       O    10.48196   -4.50426  -14.46199
      H1    10.47845   -5.26299  -13.87183
       H     8.49756   -9.04255  -16.04187
       O     8.37653   -9.08317  -17.04678
      H1     7.42738   -9.12468  -17.18526
       H     6.32115   -2.57841  -10.33230
       O     5.71013   -1.81411  -10.20294
      H1     5.03683   -1.95162  -10.92896
       H    12.95379   -3.82468  -15.84958
       O    12.84348   -4.73146  -15.50882
      H1    13.05288   -5.25233  -16.28262
       H     9.08802   -4.47468  -15.80715
       O     8.93152   -4.15552  -16.75229
      H1     7.93362   -4.35016  -16.74914
       H    10.08294   -7.75808   -7.92953
       O    10.36867   -8.05614   -8.79778
      H1    10.34530   -7.19530   -9.26270
       H    10.27707   -4.42177   -8.56506
       O    10.72849   -4.97366   -9.26246
      H1    10.60571   -4.30125   -9.98609
       H     9.25447   -9.26787  -10.61466
       O     8.34025   -9.46060  -10.69083
      H1     7.98647   -8.85377  -11.36718
       H     6.13066   -8.30539  -13.19397
       O     6.84880   -8.93937  -13.08228
      H1     7.53175   -8.52604  -13.64707
       H     9.75066   -6.17199  -11.90093
       O    10.61156   -5.92836  -12.23786
      H1    11.27613   -6.30447  -11.65593
       H     4.58906   -2.46128  -13.55179
       O     4.99698   -2.70813  -14.38234
      H1     5.12940   -1.83134  -14.70999
       H     8.99088   -7.28266  -17.25358
       O     9.54759   -6.62967  -17.69549
      H1     9.17090   -5.78351  -17.37447
       H    11.29142    0.84178  -14.85969
       O    10.57304    1.50288  -14.97835
      H1    10.81199    2.25856  -14.37365
       H     7.94429   -4.62921  -10.64122
       O     7.47314   -3.99116  -10.14901
      H1     7.62707   -4.29701   -9.23928
       H    12.50004    0.30524  -13.65126
       O    12.42996   -0.26279  -14.46962
      H1    13.19992    0.01481  -15.04024
       H     6.33686    1.26913  -10.20537
       O     6.91877    0.71820  -10.79783
      H1     6.58527   -0.11055  -10.42790
       H     5.46724   -2.07632  -19.05607
       O     5.34818   -2.68353  -18.27226
      H1     5.83994   -3.46568  -18.46657
       H     6.72465   -4.00075  -14.14402
       O     7.50452   -4.45959  -13.80759
      H1     7.96667   -3.72486  -13.43413
       H     5.65241   -5.87816  -16.64904
       O     6.42462   -5.78994  -17.26325
      H1     5.96618   -5.61815  -18.09465
       H     5.25986   -6.79410   -9.70004
       O     5.50246   -7.05696  -10.63910
      H1     4.63877   -7.48003  -10.85263
       H     8.93755   -0.47904   -8.31773
       O     8.95307   -0.55573   -7.31669
      H1     8.03530   -0.69927   -7.07849
       H     3.82935   -6.56860  -14.16201
       O     3.97031   -7.33662  -13.53440
      H1     3.52692   -8.07158  -14.02313
       H     4.25833   -0.32005  -16.60925
       O     5.03262   -0.61869  -16.20509
      H1     5.24362   -1.46313  -16.69283
       H     9.50382   -0.91422  -16.83279
       O     9.67914   -1.44511  -17.62325
      H1     9.33484   -2.22445  -17.26908

