120
frame 0 | Written by MDAnalysis XYZWriter (release 2.4.3)
       H    16.20109    5.48584    4.92908
       O    15.27962    5.71640    5.12560
      H1    14.76526    5.31896    4.46540
       H    11.62364    2.78231    8.97136
       O    11.60015    3.26996    8.10718
      H1    12.27705    2.84940    7.55364
       H     6.06614    1.13472    2.02690
       O     7.00986    0.94264    2.08500
      H1     7.04328    0.18943    2.73053
       H    14.05619    3.67359   -1.47564
       O    14.39693    3.52567   -0.58958
      H1    15.31056    3.86087   -0.76009
       H    15.77235    0.42701    4.24490
       O    16.04843   -0.38730    3.81293
      H1    16.09295   -0.01519    2.91361
       H    14.29035    4.23470    6.77103
       O    14.28964    3.59663    7.49897
      H1    13.58384    4.03719    8.03339
       H    12.29786   -3.06689    0.63520
       O    11.35960   -3.26958    0.82303
      H1    10.89349   -2.48507    0.43970
       H    10.68865   -1.75063    6.04047
       O    10.41561   -1.64338    6.92298
      H1     9.54940   -1.28354    6.73898
       H     7.41512    5.97623    1.46856
       O     7.40893    5.37389    2.24286
      H1     6.48792    5.15077    2.35460
       H    15.09692    1.23364    1.03244
       O    14.50045    1.87454    1.44141
      H1    14.28213    2.45598    0.64243
       H    13.95562    3.60492    2.61816
       O    13.78335    4.55906    2.93633
      H1    12.95884    4.38656    3.38402
       H    12.32754    8.35807    2.13032
       O    13.22018    8.72836    1.95176
      H1    13.17805    8.75568    1.00238
       H     7.85528    3.71690   -0.67076
       O     8.76675    4.03706   -0.80517
      H1     9.07618    3.73234    0.04283
       H    10.03545    4.07954   -2.03517
       O    10.76949    4.36927   -2.57410
      H1    10.26379    4.93410   -3.14202
       H    11.62952    4.97435    4.84509
       O    11.60257    4.23424    4.21854
      H1    11.73088    3.40977    4.75293
       H     9.36501    5.67857    7.70750
       O    10.19799    5.51061    7.29102
      H1    10.61318    4.90874    7.88610
       H    12.62088    1.99123    0.56395
       O    11.68691    1.99248    0.28754
      H1    11.19574    2.19792    1.09045
       H     8.47649    7.39628   -0.46868
       O     7.85324    6.66432   -0.38543
      H1     8.44836    5.90803   -0.55711
       H     7.95882    8.44958    3.59434
       O     8.24153    7.53417    3.87189
      H1     7.73371    6.97546    3.20559
       H    14.10469    5.68292    1.59391
       O    14.45093    6.39896    1.07918
      H1    14.01905    7.15071    1.47003
       H     9.96160   -0.56671    2.12659
       O    10.24679   -0.61431    3.03842
      H1    11.21004   -0.41530    2.95358
       H    10.47848    2.84276    3.22333
       O    10.52830    2.12051    2.57932
      H1    10.44002    1.26480    3.11822
       H     5.43714    1.79599    4.83707
       O     5.60935    2.21723    5.68665
      H1     6.46486    1.91194    6.03054
       H    10.55298    7.06361    2.39620
       O    10.59760    7.98893    2.76731
      H1     9.68040    7.93363    3.04664
       H    12.34159   -0.69507    7.43979
       O    12.76666   -0.01365    7.94896
      H1    12.45355   -0.16518    8.81793
       H    11.40006    0.00367    0.61668
       O    10.89593   -0.68001    0.18042
      H1    11.26036   -0.75314   -0.74143
       H     8.14625   -1.47934   -0.52718
       O     8.50515   -2.32002   -0.17568
      H1     8.85374   -2.71052   -0.98000
       H    11.33257    4.87812    2.35861
       O    11.23734    5.54941    1.64361
      H1    11.71858    5.00370    0.98728
       H    11.06905    6.59019    5.82618
       O    11.74984    6.61035    5.14403
      H1    11.22383    7.01503    4.35535
       H    12.55972    2.54550   -3.16653
       O    12.35345    1.85519   -2.55721
      H1    11.84550    2.34288   -1.87090
       H     9.69653    3.80019    5.73678
       O     9.78141    2.92989    6.12796
      H1    10.27879    3.15564    6.93101
       H     7.16407   -1.61210    4.32972
       O     7.47319   -0.81790    3.91035
      H1     8.42931   -1.01832    3.83544
       H     8.03917    7.79855    7.50184
       O     7.69883    6.97527    7.13544
      H1     7.56479    7.25710    6.23939
       H     7.88853    0.85006    0.42276
       O     7.96471    0.88493   -0.55921
      H1     8.84962    0.52243   -0.52699
       H    12.68148    1.44625    5.87890
       O    13.00232    1.76821    5.02308
      H1    13.07064    0.98167    4.45404
       H     5.54581    3.87076    5.58900
       O     5.79721    4.81224    5.33581
      H1     6.74272    4.76042    5.21593
       H     8.71184    5.86440    4.79996
       O     8.50198    4.91798    4.64083
      H1     8.33067    4.84735    3.73580
       H    13.52048    0.43262    2.63813
       O    13.17869   -0.25915    3.19838
      H1    13.68489   -0.99694    2.94957
       H    14.82894    1.88506    5.43204
       O    15.70018    2.07628    4.97312
      H1    16.39128    1.92066    5.70156
       H     8.92945    1.14237    6.33745
       O     8.24197    0.44530    6.26996
      H1     7.95380    0.38740    5.30904

