120
frame 0 | Written by MDAnalysis XYZWriter (release 2.4.3)
       H   -14.57173   -4.06580   -2.83909
       O   -15.21549   -3.36769   -2.54173
      H1   -15.51393   -3.72821   -1.70672
       H   -12.43099   -8.68346   -2.75631
       O   -12.45553   -9.52972   -3.19713
      H1   -11.52603   -9.81482   -3.10544
       H    -5.82770   -8.77254   -4.62252
       O    -6.40039   -8.92994   -3.86203
      H1    -7.09675   -8.28107   -4.01823
       H   -10.09984   -3.94593   -4.63857
       O   -10.75867   -3.78271   -3.91121
      H1   -10.52497   -4.50323   -3.29590
       H   -11.37743   -3.60681   -0.92262
       O   -11.46507   -2.64232   -0.92971
      H1   -10.65424   -2.29521   -0.56547
       H    -2.25503   -7.59221   -3.76745
       O    -2.95923   -6.97811   -3.91979
      H1    -3.58482   -7.04614   -3.15304
       H    -9.69594   -9.73678    2.83069
       O    -9.31943  -10.24807    3.60130
      H1    -9.22728   -9.57670    4.29223
       H    -6.40916   -6.27229   -3.45447
       O    -5.68217   -6.16272   -2.74738
      H1    -5.42556   -5.24910   -3.01291
       H    -8.52325  -11.70047   -2.81101
       O    -7.72796  -12.08563   -2.43922
      H1    -7.56650  -11.36286   -1.80252
       H   -13.49489   -4.55323    0.09480
       O   -12.70102   -5.10970   -0.12558
      H1   -12.40398   -5.38878    0.71054
       H   -10.06114   -6.62788   -7.38228
       O    -9.64366   -6.15619   -6.64514
      H1    -9.28094   -6.78007   -5.97937
       H    -7.20978   -7.09755   -1.86735
       O    -8.03560   -7.40062   -1.40546
      H1    -7.92749   -6.83028   -0.64555
       H   -13.07155  -10.42508   -1.08775
       O   -13.32684  -10.72887   -0.20441
      H1   -13.23429  -11.68771   -0.26928
       H    -8.53383   -3.51280    2.65001
       O    -8.43857   -2.58270    2.82954
      H1    -7.51707   -2.42070    2.47255
       H    -9.83626   -9.09971   -7.95752
       O   -10.00286   -9.92075   -7.51694
      H1    -9.43425  -10.54184   -7.90472
       H   -12.45467   -6.85523   -5.23254
       O   -12.03237   -7.71356   -5.31383
      H1   -12.43997   -8.30801   -4.69750
       H    -9.17231   -1.96181    0.88100
       O    -9.34449   -1.42220    0.08667
      H1    -8.46009   -1.36112   -0.24185
       H    -4.84925   -5.28048    0.70735
       O    -4.83392   -6.20559    0.89308
      H1    -5.26418   -6.21388    1.74570
       H    -6.45101   -2.21160    0.14805
       O    -6.45420   -2.08072    1.09904
      H1    -6.36264   -1.09877    1.17920
       H    -6.51183  -12.15843   -4.51785
       O    -5.97473  -11.41651   -4.88099
      H1    -6.22557  -10.69385   -4.30400
       H    -9.23233   -2.32109   -3.71838
       O    -8.97139   -1.69074   -4.44429
      H1    -8.61222   -1.01770   -3.89007
       H    -8.84610   -9.79403   -2.06901
       O    -9.66605   -9.80067   -2.55102
      H1    -9.39259   -9.78906   -3.50108
       H    -4.39105   -7.60615   -6.05129
       O    -5.03649   -8.30117   -6.19319
      H1    -5.85217   -7.88711   -5.87463
       H   -10.47019   -8.22962   -5.14487
       O    -9.55908   -8.58698   -5.18984
      H1    -9.60820   -9.26445   -5.92542
       H    -8.05291   -4.86648   -9.40771
       O    -7.73305   -5.13064   -8.49455
      H1    -8.59476   -5.52275   -8.19627
       H   -10.84655   -6.53466   -2.65087
       O    -9.89240   -6.22436   -2.80356
      H1    -9.36848   -6.80746   -2.21069
       H    -6.43835   -5.51622    0.10519
       O    -7.31634   -5.04005    0.03515
      H1    -7.54129   -4.98880    0.97582
       H    -5.00174   -1.33497   -1.47033
       O    -5.92119   -1.71028   -1.47972
      H1    -5.61086   -2.66299   -1.67324
       H   -11.87982   -8.17758   -0.46317
       O   -11.06514   -8.43836   -0.00106
      H1   -10.77585   -9.16314   -0.58478
       H    -7.44201   -8.92484   -0.84043
       O    -7.52398   -9.87946   -0.79817
      H1    -6.97098  -10.14944   -0.08046
       H    -3.74380   -3.61805   -2.28967
       O    -4.66001   -3.61295   -2.58428
      H1    -4.54605   -3.09190   -3.42164
       H   -10.90628   -7.16661    1.38116
       O   -11.24134   -6.30592    1.69435
      H1   -11.92647   -6.56810    2.30309
       H   -13.70518   -4.77460   -4.91676
       O   -13.27594   -4.84610   -3.98113
      H1   -12.55894   -4.18332   -3.95922
       H   -12.98553   -6.62987   -2.84874
       O   -12.84611   -7.09062   -2.01877
      H1   -12.76564   -6.32722   -1.42818
       H    -4.68844   -9.38802   -2.28774
       O    -3.76086   -9.65511   -2.23463
      H1    -3.65869  -10.01828   -3.13276
       H    -8.46513   -3.16348   -5.35970
       O    -7.91741   -3.89239   -5.56268
      H1    -8.28627   -4.09855   -6.46906
       H    -8.65260   -6.53484   -4.12751
       O    -7.75792   -6.52691   -4.52041
      H1    -7.75584   -5.66218   -4.96079
       H    -4.45712   -8.40000    0.78802
       O    -4.66984   -9.31968    0.60378
      H1    -4.17261   -9.54306   -0.15888
       H    -9.60256   -5.75240    2.14621
       O    -8.75865   -5.36634    2.51630
      H1    -8.53960   -6.07078    3.17204
       H   -11.81026   -2.16892   -2.98923
       O   -12.39594   -1.63718   -3.55498
      H1   -13.08176   -1.24843   -2.96970

