120
frame 1 | Written by MDAnalysis XYZWriter (release 2.4.3)
       H    -2.50972  -10.24697  -14.16942
       O    -1.97818   -9.63517  -13.59098
      H1    -2.31625   -9.90189  -12.73687
       H    -5.70123   -8.23738  -11.64253
       O    -6.10035   -8.42115  -10.74320
      H1    -5.86094   -7.63375  -10.22464
       H    -4.32914  -12.45706  -16.04326
       O    -4.83235  -13.22987  -16.35891
      H1    -5.64949  -12.81946  -16.62151
       H    -5.44075  -13.41953  -14.80779
       O    -5.84751  -13.48399  -13.89655
      H1    -6.66362  -13.01861  -14.01501
       H    -1.75421  -15.27347  -10.45041
       O    -1.99616  -14.93130  -11.31067
      H1    -2.72125  -14.32986  -11.13989
       H    -2.33839  -11.42165  -15.96573
       O    -3.08954  -11.29053  -15.32287
      H1    -2.87652  -12.02127  -14.68260
       H    -1.95366  -11.22386  -18.16830
       O    -1.50923  -11.17386  -17.28278
      H1    -0.60136  -11.35957  -17.46235
       H    -8.77801  -12.07829  -14.68130
       O    -8.33954  -12.86688  -15.01913
      H1    -7.81526  -12.46976  -15.70386
       H    -2.35125  -16.09671  -14.38800
       O    -1.40912  -16.02371  -14.76652
      H1    -0.75876  -16.27212  -14.06718
       H    -1.58460  -10.19556   -8.63449
       O    -1.51735  -10.41166   -9.59102
      H1    -1.79072  -11.32752   -9.48658
       H     2.15569  -13.28227  -11.99512
       O     3.04796  -13.15612  -12.36326
      H1     2.90739  -13.47543  -13.24730
       H     2.10486  -12.08551  -17.22501
       O     2.99704  -11.78527  -17.29552
      H1     3.22547  -12.20928  -18.12803
       H     0.21931  -14.75040  -17.28969
       O     0.59220  -14.75917  -16.42067
      H1    -0.14620  -14.96662  -15.82969
       H     1.33608  -16.15620  -13.79425
       O     0.70915  -16.05126  -13.03936
      H1     0.91581  -15.11247  -12.76373
       H    -1.02902   -7.83197  -12.73154
       O    -0.35531   -7.08050  -12.75134
      H1     0.36370   -7.36381  -12.20284
       H    -6.61245   -9.65228  -13.57637
       O    -7.58886   -9.84340  -13.60880
      H1    -7.98111   -9.02536  -13.39652
       H    -2.82408  -10.01887  -10.66291
       O    -3.46032  -10.20312  -11.36854
      H1    -4.16199   -9.47947  -11.18530
       H    -4.27622  -15.51765  -13.67930
       O    -4.17460  -16.41563  -13.98090
      H1    -3.92210  -16.95187  -13.22643
       H    -3.07816   -7.20487  -16.19352
       O    -3.96558   -7.41002  -15.81963
      H1    -4.42313   -7.85976  -16.55397
       H    -2.10102  -14.18543  -13.71675
       O    -2.47183  -13.29789  -13.64020
      H1    -1.65855  -12.96056  -13.22224
       H    -5.36996  -11.37110   -9.84501
       O    -5.54096  -10.53544   -9.23632
      H1    -5.74867   -9.83926   -9.83602
       H     0.36116   -6.37339  -15.79519
       O     0.33538   -7.27920  -15.46472
      H1     0.09450   -7.04337  -14.52287
       H    -5.14985  -13.26763  -11.39182
       O    -4.52287  -12.92003  -10.66754
      H1    -3.99235  -12.18525  -11.11220
       H    -6.75398  -15.95145  -13.71058
       O    -6.87563  -16.35977  -12.84392
      H1    -7.75544  -16.75595  -13.01487
       H    -6.78634  -14.75659  -11.85512
       O    -7.00984  -13.86434  -11.54653
      H1    -7.23469  -13.99281  -10.59890
       H    -1.33537   -9.25700  -16.92491
       O    -1.49969   -8.31871  -17.19386
      H1    -1.15595   -7.77145  -16.41681
       H    -4.23970  -14.70872  -17.02785
       O    -3.81381  -15.50806  -17.47591
      H1    -3.73378  -16.04793  -16.67241
       H    -7.72404  -10.95023  -12.30724
       O    -7.98981  -11.40296  -11.51692
      H1    -7.64769  -12.30524  -11.63090
       H    -6.28607  -10.78012  -17.11193
       O    -6.88969  -11.53857  -16.91751
      H1    -7.41824  -11.26020  -17.69618
       H     1.05543  -13.51563  -19.47293
       O     0.97063  -12.59454  -19.06511
      H1     0.47138  -12.18866  -19.78965
       H     2.38738  -14.30394  -15.72995
       O     2.88874  -13.92409  -15.03150
      H1     3.58502  -13.52982  -15.51252
       H     1.57475   -8.87714  -14.88718
       O     2.11172   -9.47302  -14.29959
      H1     1.47205  -10.14988  -14.06346
       H    -4.23186   -8.25436  -13.64187
       O    -5.11776   -8.16383  -13.30041
      H1    -4.98366   -7.22725  -13.10512
       H    -0.18045  -12.72329  -12.17132
       O     0.06755  -13.62581  -12.36200
      H1    -0.53530  -14.08784  -11.73910
       H    -1.29497  -17.61666  -16.06549
       O    -1.16777  -18.46639  -16.45252
      H1    -0.92777  -18.96445  -15.62730
       H    -4.73744  -15.69692   -8.64633
       O    -4.79342  -14.70920   -8.48668
      H1    -4.51754  -14.38945   -9.31186
       H    -0.84896  -15.98899  -18.94661
       O    -1.11926  -15.11944  -18.54392
      H1    -1.93740  -15.44132  -18.11250
       H    -0.51545  -10.32197  -13.08992
       O     0.17303  -10.94590  -12.73748
      H1     0.62709  -10.44370  -11.99881
       H    -4.47751  -10.21415  -16.10829
       O    -4.80491   -9.98695  -16.96452
      H1    -4.08038   -9.98608  -17.56277
       H    -7.49154   -6.67815  -15.91765
       O    -7.08279   -6.41554  -15.11517
      H1    -6.65809   -7.27534  -14.78624

