120
frame 1 | Written by MDAnalysis XYZWriter (release 2.4.3)
       H    -7.38435   -4.98920   17.81734
       O    -7.54417   -4.53602   18.70066
      H1    -6.91962   -4.95555   19.34969
       H    -1.19346   -1.24946   18.40569
       O    -0.45009   -1.61385   17.87649
      H1    -0.85037   -2.21883   17.22654
       H     1.05255   -7.69493   14.02357
       O     1.55069   -7.19431   14.70367
      H1     2.42553   -7.16734   14.31686
       H    -2.62219  -11.60296   18.70503
       O    -3.57374  -11.43107   18.54030
      H1    -3.60506  -11.27549   17.55550
       H    -0.43568  -12.96485   18.22294
       O    -0.84105  -12.10746   18.21558
      H1    -0.86158  -11.84813   17.33204
       H    -8.10025   -8.50312   15.45012
       O    -7.16151   -8.23915   15.35127
      H1    -6.61502   -9.02649   15.37492
       H    -2.61343  -11.71212   11.86983
       O    -2.54050  -12.34195   12.64255
      H1    -3.27913  -12.94818   12.69254
       H    -0.46196   -3.19872   13.96572
       O    -1.16625   -2.60227   14.26304
      H1    -1.71961   -3.09175   14.80793
       H    -4.34764  -13.06391   15.52805
       O    -4.08525  -12.11014   15.42614
      H1    -3.60409  -12.12115   14.58351
       H    -3.46669   -8.73238   16.27281
       O    -3.90776   -8.81316   17.11673
      H1    -3.14072   -8.93625   17.76862
       H    -3.59510   -8.37259   13.37381
       O    -4.18951   -8.51576   12.58815
      H1    -3.85104   -7.73303   12.05441
       H    -0.78946  -10.26381   14.67634
       O    -0.87151  -11.21616   14.58780
      H1    -1.57679  -11.44449   14.01773
       H    -8.92118   -9.28623   17.79404
       O    -8.41846   -8.48538   18.05729
      H1    -7.56505   -8.74057   18.46376
       H    -5.32555   -9.29484   18.06791
       O    -6.14471   -9.46954   18.60323
      H1    -6.67454  -10.27603   18.37542
       H    -2.81568   -6.34136   10.69335
       O    -2.63270   -6.14127   11.65186
      H1    -2.39552   -5.23719   11.72408
       H    -0.36095   -8.21625   12.01255
       O    -0.18820   -8.44192   12.92565
      H1     0.03129   -9.40817   12.89276
       H     3.49094  -11.23107   14.63505
       O     4.20287  -11.03984   13.99285
      H1     3.97866  -11.34163   13.12140
       H     0.49545  -11.75341   13.60847
       O     1.36901  -11.73022   13.12285
      H1     1.58286  -12.69860   13.21830
       H    -0.06407  -15.57573   18.70260
       O    -0.26841  -14.93164   17.98136
      H1     0.52169  -14.79250   17.47497
       H     2.37185  -10.53524   16.77082
       O     2.72252  -11.29055   16.22179
      H1     3.41764  -11.72174   16.70037
       H     2.58221  -13.15832   18.73299
       O     3.32207  -12.57148   18.95124
      H1     2.85778  -11.93767   19.49980
       H    -5.61012  -11.22996   15.54610
       O    -6.46139  -10.79393   15.41579
      H1    -6.96318  -11.03458   16.22626
       H     4.38498   -7.43991   12.64739
       O     3.87965   -7.80130   13.39627
      H1     4.21761   -8.68363   13.59538
       H     5.17897   -7.91717   17.35433
       O     4.72172   -7.17649   16.96512
      H1     4.96693   -6.37985   17.47169
       H    -1.54559   -4.93923   18.86340
       O    -2.41756   -4.92170   19.25508
      H1    -2.40255   -5.54696   20.01318
       H    -3.07039   -7.47940   14.78005
       O    -2.49987   -8.28523   14.88190
      H1    -1.72756   -7.95642   14.40026
       H     0.34901   -4.58782   12.45436
       O     0.67530   -4.53075   13.34950
      H1     0.90914   -5.43466   13.59873
       H    -1.17181   -7.52583   17.84619
       O    -1.31638   -8.43567   18.13093
      H1    -0.44768   -8.73560   17.79769
       H    -3.16214   -4.51859   15.94025
       O    -2.56655   -3.84592   16.20222
      H1    -3.02043   -3.24809   16.83888
       H    -1.28692   -5.32731   16.61897
       O    -0.61839   -5.97733   16.99420
      H1     0.17236   -5.92287   16.44683
       H     0.82092   -4.96859   18.07636
       O     1.24764   -4.25117   18.54530
      H1     1.18358   -3.53971   17.88809
       H    -5.68336  -13.86753   19.34102
       O    -5.78793  -13.01883   18.86434
      H1    -4.92936  -12.55180   18.83308
       H    -7.12901   -5.09029   15.54043
       O    -7.26044   -5.63907   16.27646
      H1    -7.24291   -6.52523   15.93087
       H     3.30764   -4.34178   17.82822
       O     4.25381   -4.35916   17.91566
      H1     4.56513   -3.52861   18.29158
       H    -4.33884   -7.05385   17.77542
       O    -4.36273   -6.09552   17.82757
      H1    -3.51219   -5.84829   18.31082
       H    -3.39077   -1.20788   18.32454
       O    -3.78496   -1.90561   17.76106
      H1    -4.24456   -1.36076   17.06743
       H    -4.44180   -5.98464   14.33071
       O    -3.81505   -5.87872   15.00677
      H1    -4.30867   -5.96198   15.80492
       H     0.87935   -2.81057   15.36024
       O     1.68642   -3.04364   15.86660
      H1     2.24654   -2.27611   15.90039
       H     1.48306   -8.53251   16.09609
       O     1.04572   -8.90838   16.81074
      H1     1.31580   -8.49047   17.60761
       H     1.58348  -14.88770   15.96483
       O     1.86084  -14.22514   16.60159
      H1     1.98280  -13.38107   16.06808

