120
frame 4 | Written by MDAnalysis XYZWriter (release 2.4.3)
       H    13.47100  -13.15555    4.30671
       O    12.63301  -13.07572    3.79538
      H1    12.01540  -13.79670    4.03394
       H     8.70132  -12.65193    9.79467
       O     9.04460  -13.35266    9.21759
      H1     8.46368  -14.03236    9.52378
       H     9.07539  -13.28720   -0.58865
       O     8.78932  -12.91431   -1.42896
      H1     8.51218  -11.97369   -1.29064
       H    10.65001  -14.60159    2.61439
       O    10.88685  -15.12564    3.38266
      H1    11.54241  -15.68468    3.01287
       H    12.11477  -14.30521   -1.76793
       O    12.21891  -14.85861   -2.57193
      H1    12.67430  -15.62944   -2.27162
       H    13.85161  -12.53424    2.44933
       O    14.22376  -12.57893    1.55529
      H1    15.09487  -12.98610    1.61607
       H     9.27077  -14.46540    6.97060
       O    10.13172  -14.33188    6.55122
      H1     9.88528  -13.93638    5.68120
       H     7.99203  -17.10134    0.38603
       O     8.14950  -16.32306    0.91690
      H1     8.21429  -16.61509    1.82221
       H     2.76260  -14.80779    2.10361
       O     2.95881  -15.39002    2.87588
      H1     3.67071  -15.86532    2.48844
       H     7.75186  -14.11324   -2.69421
       O     7.17213  -14.60729   -3.28973
      H1     7.74430  -14.69543   -4.10877
       H     8.43735  -18.03576   -1.32017
       O     7.84038  -18.49988   -0.68221
      H1     6.97960  -18.49796   -1.15595
       H     7.72208  -13.76680    3.01636
       O     6.95781  -13.79054    3.54558
      H1     6.11863  -13.88109    3.05322
       H     3.82075  -19.80798    7.71655
       O     3.74940  -19.08813    8.33133
      H1     3.85478  -18.23128    7.95806
       H    12.28937  -11.37329    4.00405
       O    12.10351  -10.41046    4.05307
      H1    12.38405  -10.19842    4.94911
       H    13.65751  -17.85975   -2.47398
       O    13.82590  -17.15110   -1.82873
      H1    13.73932  -17.52070   -0.92007
       H    13.06468  -13.80314    0.52003
       O    12.12661  -13.94944    0.33035
      H1    11.84003  -14.86903    0.54151
       H     5.65695  -17.57229    1.94379
       O     4.98017  -16.88513    1.70525
      H1     5.35588  -16.14832    1.14430
       H     6.84864  -14.68929    0.73580
       O     5.83044  -14.59532    0.64101
      H1     5.67581  -13.81760    0.07083
       H     8.79510  -10.67298    3.28801
       O     9.31276  -11.12809    4.02286
      H1    10.14447  -10.64627    4.06605
       H     6.24926  -16.29677   -3.01836
       O     5.78367  -17.13258   -2.91658
      H1     5.44944  -17.22565   -3.84784
       H     3.14521  -16.15449    7.19235
       O     3.48261  -16.26128    8.05090
      H1     2.69023  -16.01942    8.59620
       H    10.90481  -17.46071    8.57819
       O    10.81069  -17.81411    9.45322
      H1    10.12243  -17.36237    9.99384
       H     7.43371  -18.53057    1.90649
       O     6.78378  -19.00680    2.46150
      H1     7.34510  -19.42144    3.09112
       H     4.31872  -17.30150    4.22573
       O     3.53971  -17.88587    4.35753
      H1     2.78638  -17.28308    4.54954
       H     5.53120  -10.71889    5.99212
       O     5.28481  -11.28759    5.23674
      H1     6.05689  -11.37276    4.65888
       H    10.57952  -18.56351   -2.13843
       O    10.56999  -17.69906   -1.64081
      H1    10.53504  -17.07318   -2.38026
       H    13.98020  -16.54422    8.55346
       O    13.98409  -17.28538    7.89910
      H1    13.85644  -18.16967    8.36618
       H    11.17170  -16.83863   -0.11691
       O    11.01655  -16.30479    0.68346
      H1    10.06460  -16.07570    0.68318
       H    12.62231  -18.97623    0.54473
       O    13.38847  -18.37337    0.53485
      H1    14.17770  -18.95693    0.77279
       H     7.00891  -15.09369    5.02607
       O     7.27707  -15.48135    5.88582
      H1     7.38075  -16.42759    5.72299
       H     8.26331  -18.35458    6.58512
       O     7.61890  -18.30554    5.85286
      H1     6.96795  -19.06140    5.93493
       H     3.82174  -13.13994    5.21720
       O     3.01086  -13.63838    5.11797
      H1     3.05870  -14.26184    4.41440
       H     2.21747  -17.59997    0.80460
       O     2.81564  -17.81924    0.09590
      H1     3.58655  -17.95976    0.56692
       H    12.97670  -18.09216    2.34840
       O    13.07475  -17.82708    3.25442
      H1    13.74852  -17.12141    3.29931
       H     6.44871  -15.00704    9.44122
       O     7.09792  -14.97509   10.11466
      H1     7.50334  -15.87180   10.25280
       H     9.75758  -12.28365    2.13446
       O     9.76183  -13.07535    1.54121
      H1    10.66283  -13.03913    1.14944
       H     8.61356  -17.41451    4.35847
       O     8.74448  -16.95806    3.50270
      H1     9.54829  -16.37599    3.49171
       H    10.62433  -16.29884    6.74916
       O    11.05096  -17.08090    6.99035
      H1    12.01084  -16.96009    7.04123
       H     6.19559  -14.89833    7.24208
       O     5.56983  -14.57217    7.91710
      H1     4.88472  -15.21192    7.68235
       H    10.43275  -12.01413    8.07935
       O    11.33488  -12.17174    7.72290
      H1    11.09365  -13.01014    7.31116

