120
frame 0 | Written by MDAnalysis XYZWriter (release 2.4.3)
       H    16.20109    5.48584    4.92908
       O    15.27962    5.71640    5.12560
      H1    14.76526    5.31896    4.46540
       H    11.62364    2.78231    8.97136
       O    11.60015    3.26996    8.10718
      H1    12.27705    2.84940    7.55364
       H    14.24443    1.73227   13.02263
       O    14.66819    0.89504   13.34584
      H1    15.47938    1.14342   13.84292
       H    15.74343    3.03551    8.84827
       O    16.36888    2.76927    9.59758
      H1    16.55555    1.80369    9.45045
       H    10.54473   10.51309   11.81305
       O     9.73330   10.35289   12.33996
      H1    10.02467    9.49345   12.71913
       H    12.94611    2.40289   10.60675
       O    12.01614    2.11985   10.49804
      H1    11.98609    1.21323   10.88581
       H    18.02663    8.96376    6.64373
       O    17.31434    9.41276    6.09848
      H1    16.53983    8.77452    6.20660
       H    14.80058    6.74736   11.78603
       O    15.00750    6.28987   10.91197
      H1    14.65584    5.38051   11.20436
       H    12.11617    8.69780    7.76960
       O    11.54322    8.34338    8.44627
      H1    11.11991    7.57378    8.09452
       H    11.65852    8.87606   13.95230
       O    10.88439    8.36208   13.89562
      H1    11.15861    7.42258   14.00763
       H    14.29035    4.23470    6.77103
       O    14.28964    3.59663    7.49897
      H1    13.58384    4.03719    8.03339
       H    17.59528    6.07476   12.87681
       O    17.74293    6.30855   13.78609
      H1    17.55473    5.45388   14.20740
       H    14.69521    8.11251   18.09547
       O    14.97451    8.23543   17.13081
      H1    14.31306    8.84285   16.72234
       H    15.83288    8.04610   15.48047
       O    15.97290    8.49298   14.54690
      H1    16.83168    8.04120   14.35545
       H    14.27000   11.81319   12.11789
       O    14.24905   12.44332   11.32183
      H1    15.13984   12.52834   10.93430
       H    14.21103    6.67855   16.75098
       O    13.83910    5.80249   16.64022
      H1    13.22203    5.70038   17.39446
       H    13.30857    8.78771    9.82762
       O    13.02098    8.87002   10.73247
      H1    12.17715    8.29802   10.72333
       H     9.30108    3.69639   11.14074
       O    10.12810    4.11327   10.85422
      H1    10.80856    3.41927   10.78875
       H    12.35097    6.64579    8.63571
       O    13.14337    6.06177    8.65993
      H1    13.68728    6.44483    9.42686
       H    14.62723    7.76795   13.61957
       O    13.90534    7.30945   13.19097
      H1    13.48769    8.05571   12.71130
       H    18.11784    0.88861   11.87612
       O    18.55517    0.56468   12.70930
      H1    18.13330   -0.30846   12.94544
       H    14.59397    3.64250   12.54784
       O    14.48534    3.53678   11.53103
      H1    15.39555    3.32929   11.30073
       H     9.36501    5.67857    7.70750
       O    10.19799    5.51061    7.29102
      H1    10.61318    4.90874    7.88610
       H    17.88864    2.30136    7.84338
       O    17.57572    1.65889    7.17487
      H1    18.41434    1.48940    6.68403
       H    13.16553    8.12919    5.64391
       O    13.58773    8.71370    6.27920
      H1    14.05420    8.09408    6.80490
       H    16.97783    2.80901   14.67278
       O    17.01239    1.83744   14.68565
      H1    17.59443    1.77288   13.95817
       H    18.10912    4.50909    5.91451
       O    17.81615    4.96726    5.11648
      H1    17.87374    4.30984    4.38758
       H    16.31433   10.57627   13.86924
       O    16.38371   11.49026   13.58652
      H1    17.34752   11.62587   13.59995
       H    15.27574    6.70955    6.54410
       O    15.63570    7.23589    7.33680
      H1    15.19214    6.78504    8.03851
       H    13.97727    4.65446   14.37255
       O    14.56216    3.85868   14.26837
      H1    13.90540    3.10905   14.53624
       H    11.06905    6.59019    5.82618
       O    11.74984    6.61035    5.14403
      H1    11.22383    7.01503    4.35535
       H    10.66318    6.37545   11.11711
       O    10.82188    7.33097   11.16233
      H1    10.01815    7.67553   10.75182
       H    12.08282   10.91613   13.08050
       O    12.77384   10.41176   13.54731
      H1    12.60890   10.55719   14.45688
       H    14.71748   11.25721    7.72689
       O    13.89090   10.90640    8.16460
      H1    13.63123   10.27744    7.49562
       H    17.26923    4.39109   10.09773
       O    17.46242    5.35079   10.22228
      H1    16.66738    5.78134   10.60665
       H    16.70874   10.90321    6.92097
       O    16.36746   11.66535    7.42115
      H1    17.11068   12.28388    7.18811
       H    17.81303    6.15943    8.68116
       O    18.19108    6.29133    7.77555
      H1    17.42630    6.59919    7.37567
       H    12.32594   12.07887   10.97744
       O    11.64930   11.37333   10.73164
      H1    12.27292   10.59943   10.51900
       H    15.93316    4.34830   15.34867
       O    16.83408    4.25677   15.64586
      H1    16.79943    4.29113   16.61932
       H    17.20557    9.65951   10.78007
       O    17.81315    9.04295   11.15557
      H1    18.45603    8.87842   10.47555

