120
frame 11 | Written by MDAnalysis XYZWriter (release 2.4.3)
       H    -4.05309   -3.22588   11.65053
       O    -4.29555   -2.42732   12.11349
      H1    -3.43486   -1.90233   12.10177
       H    -7.01748   -4.79899    5.08763
       O    -7.21128   -4.38764    4.25483
      H1    -6.48864   -3.83989    3.99257
       H    -0.96342   -5.60303    5.96482
       O    -0.51012   -6.08888    6.66226
      H1    -1.03366   -6.91361    6.69827
       H    -4.77116   -1.80491    7.09988
       O    -4.22329   -1.42752    6.37027
      H1    -3.50870   -0.97867    6.87386
       H    -0.70807   -1.92512    2.95835
       O    -0.66754   -2.14890    3.86215
      H1    -0.31468   -1.35149    4.22368
       H    -0.82725    3.76976    9.67021
       O    -1.37334    3.59056    8.85944
      H1    -2.12823    3.10819    9.32062
       H    -3.99614   -5.63893   11.56296
       O    -3.77907   -4.88404   10.99202
      H1    -4.35195   -4.99017   10.17880
       H    -8.69770   -3.95491    6.82914
       O    -8.65810   -3.07005    6.43135
      H1    -8.14626   -3.28163    5.64317
       H    -1.87320    3.09232    5.92880
       O    -2.54925    3.13969    5.27613
      H1    -2.27239    2.83200    4.42317
       H    -1.66926   -0.30665   12.60127
       O    -2.53545   -0.52318   13.00054
      H1    -2.85850    0.29144   13.32172
       H    -1.08124   -4.67678    7.76638
       O    -1.31250   -3.77957    7.95903
      H1    -0.66896   -3.22448    7.49111
       H    -8.43312   -3.63653   10.31904
       O    -7.50737   -3.87321   10.48547
      H1    -7.26108   -4.57820    9.81415
       H    -5.38285    2.07989    2.44773
       O    -4.59317    2.68235    2.54554
      H1    -3.83310    2.08185    2.62549
       H     1.97834   -1.13578    8.96351
       O     2.01548   -0.64037    9.77907
      H1     1.85858    0.26372    9.60558
       H    -5.11885   -1.72087    4.62812
       O    -5.32658   -2.16241    3.79054
      H1    -6.02848   -1.62379    3.41154
       H    -7.21257    0.39832    5.78655
       O    -6.48127    0.75738    5.28267
      H1    -6.17020    1.56748    5.67584
       H    -7.98810    3.53728    8.97718
       O    -8.04147    3.75080    8.04048
      H1    -7.15707    3.85158    7.61655
       H    -3.22078   -1.57867   10.01516
       O    -2.30733   -1.42254    9.78284
      H1    -2.01945   -2.15136    9.21507
       H    -5.10642    4.16095    7.22561
       O    -5.31420    4.95694    7.70473
      H1    -5.38417    5.63980    7.02691
       H     1.43596   -1.95291    7.06192
       O     0.54858   -2.03469    6.75233
      H1     0.39419   -1.26787    6.14537
       H    -5.66354   -2.73584    9.25128
       O    -5.05685   -2.11034    8.91635
      H1    -5.36151   -1.25279    9.15976
       H    -7.04663    1.14061    3.32776
       O    -6.79301    1.29981    2.35187
      H1    -7.57802    1.39725    1.85958
       H    -2.62875    0.84526    7.40183
       O    -2.10825    0.01488    7.35862
      H1    -2.23718   -0.38861    8.24068
       H    -5.93913   -5.49984    8.25506
       O    -5.91242   -5.72884    9.18433
      H1    -6.23165   -6.64375    9.25693
       H    -2.73085   -4.01497    6.82351
       O    -3.39885   -4.02137    6.03328
      H1    -3.69295   -3.08979    6.08128
       H    -0.49115    2.70133    7.52275
       O    -0.39705    2.28161    6.65436
      H1     0.36323    2.70567    6.23865
       H    -0.77593   -3.86602    4.38547
       O    -1.28711   -4.69249    4.44436
      H1    -2.19745   -4.44004    4.61998
       H     0.99250    2.02441    8.00187
       O     1.59720    1.96525    8.75607
      H1     2.41595    1.87710    8.30621
       H    -9.00392   -0.31730    7.65158
       O    -8.12018   -0.70769    7.80268
      H1    -8.25588   -1.60140    7.36633
       H    -0.86652   -0.88327   10.87101
       O    -0.25347   -0.25918   11.40428
      H1     0.54293   -0.41098   10.91365
       H    -1.88255   -1.58375    1.66660
       O    -0.99153   -1.52468    1.28342
      H1    -0.70336   -2.45890    1.17708
       H    -4.90015   -4.77566    6.48548
       O    -5.75770   -5.31551    6.49765
      H1    -5.42236   -6.14690    6.19838
       H    -1.55698    1.02917    2.25887
       O    -2.16516    1.44109    2.89111
      H1    -2.08275    1.03802    3.74156
       H    -0.12748    0.70838    5.76532
       O     0.39277    0.26502    5.13617
      H1     0.96608    0.84908    4.64721
       H    -5.34352    3.70744    4.66591
       O    -5.28404    3.18587    5.51192
      H1    -4.35792    2.96084    5.40535
       H    -4.38600   -1.13484    2.06582
       O    -3.80597   -1.38042    1.33964
      H1    -4.18814   -0.89017    0.54368
       H    -6.84869   -0.02686    9.15424
       O    -6.19288    0.34050    9.71254
      H1    -6.49793    0.29415   10.63204
       H    -1.83433    2.75361   11.53150
       O    -0.88079    2.67961   11.33070
      H1    -0.79134    1.83451   10.88844
       H    -4.08203    2.62407   10.02066
       O    -4.10048    2.31288    9.11115
      H1    -4.71013    1.51159    9.11365
       H    -3.77534   -4.74659    2.34726
       O    -4.54399   -4.72745    2.93238
      H1    -4.58682   -3.83658    3.31265

