120
frame 0 | Written by MDAnalysis XYZWriter (release 2.4.3)
       H     7.46129   -3.58792   -3.01934
       O     6.89573   -4.29177   -3.44052
      H1     6.43279   -3.78898   -4.15317
       H     5.68154    0.37335   -4.56597
       O     4.90537    0.45351   -3.95370
      H1     4.59752   -0.50021   -3.94951
       H     3.01973    0.77294   -5.67479
       O     3.45655    0.16174   -6.28437
      H1     4.33006   -0.01721   -5.85680
       H     5.72536    3.72257   -4.58888
       O     6.19348    3.83522   -3.77187
      H1     6.01518    4.77642   -3.53138
       H     6.84138   -4.49766    1.80135
       O     6.50969   -4.01669    1.03554
      H1     7.13247   -3.30416    0.78140
       H     6.06614    1.13472    2.02690
       O     7.00986    0.94264    2.08500
      H1     7.04328    0.18943    2.73053
       H    12.98347    4.00717   -4.94550
       O    12.73884    3.07115   -5.03646
      H1    12.57016    2.93946   -5.98347
       H     9.32796   -3.74377   -5.65403
       O     9.16555   -4.44584   -5.05115
      H1     8.36451   -4.23259   -4.54504
       H     7.77060    5.16711   -4.02168
       O     8.65250    5.58078   -3.76603
      H1     9.16091    5.20633   -4.49908
       H    12.29786   -3.06689    0.63520
       O    11.35960   -3.26958    0.82303
      H1    10.89349   -2.48507    0.43970
       H     2.38483   -4.79764   -4.40442
       O     3.23430   -4.46580   -4.66057
      H1     3.64783   -4.39165   -3.76316
       H    10.14443    4.80782   -6.87382
       O    10.11522    4.45001   -5.94724
      H1    10.23571    3.48403   -6.04884
       H     5.22698   -5.02916   -2.79936
       O     4.47679   -5.16443   -2.24170
      H1     4.08465   -6.00835   -2.49575
       H     7.52729   -5.80600   -7.36358
       O     7.62688   -4.82731   -7.61745
      H1     8.34240   -4.56025   -7.03420
       H     7.04509   -0.88219   -5.23925
       O     6.36900   -0.82938   -5.89883
      H1     6.04301   -1.76695   -5.96456
       H    10.95251   -6.80689   -1.80240
       O    10.08463   -6.50309   -1.58077
      H1     9.75838   -7.04381   -0.88919
       H     4.93029   -3.99231   -5.62961
       O     5.79454   -3.62671   -5.87864
      H1     6.13504   -4.26691   -6.57025
       H     6.16832    1.02883   -1.10657
       O     5.38252    1.32898   -1.47227
      H1     5.50244    1.24757   -2.47094
       H     7.85528    3.71690   -0.67076
       O     8.76675    4.03706   -0.80517
      H1     9.07618    3.73234    0.04283
       H    10.03545    4.07954   -2.03517
       O    10.76949    4.36927   -2.57410
      H1    10.26379    4.93410   -3.14202
       H     7.93893   -6.72516   -2.28644
       O     7.22669   -7.36882   -2.18691
      H1     6.71720   -7.04371   -1.42944
       H    12.62088    1.99123    0.56395
       O    11.68691    1.99248    0.28754
      H1    11.19574    2.19792    1.09045
       H     3.20456   -1.32875   -2.58589
       O     3.49703   -1.80604   -3.40898
      H1     2.88549   -1.35597   -4.03042
       H     9.96160   -0.56671    2.12659
       O    10.24679   -0.61431    3.03842
      H1    11.21004   -0.41530    2.95358
       H    11.10240    2.18568   -4.99078
       O    10.36594    1.63581   -5.35514
      H1    10.70820    1.15246   -6.07922
       H    10.32423   -4.52265   -2.40285
       O    10.20342   -3.55659   -2.52607
      H1    11.04499   -3.19034   -2.27403
       H    10.54266   -5.51706   -5.42962
       O    11.48333   -5.85391   -5.29165
      H1    11.74487   -5.11213   -4.63043
       H    11.40006    0.00367    0.61668
       O    10.89593   -0.68001    0.18042
      H1    11.26036   -0.75314   -0.74143
       H     8.14625   -1.47934   -0.52718
       O     8.50515   -2.32002   -0.17568
      H1     8.85374   -2.71052   -0.98000
       H     8.16314   -0.76520   -3.32647
       O     8.19705   -1.68570   -3.66109
      H1     9.11020   -1.76522   -3.85096
       H    12.94829   -1.41607   -2.06803
       O    12.12327   -1.11255   -2.40633
      H1    12.15740   -0.15904   -2.55445
       H    13.36005   -2.83164   -6.37505
       O    12.75960   -2.31515   -6.96542
      H1    12.89310   -2.83002   -7.77348
       H    10.87452   -2.82344   -7.03995
       O     9.97881   -3.05652   -7.18063
      H1     9.61906   -2.15036   -7.14866
       H    12.55972    2.54550   -3.16653
       O    12.35345    1.85519   -2.55721
      H1    11.84550    2.34288   -1.87090
       H     5.52439    4.56918   -1.26485
       O     5.26603    3.82036   -0.69228
      H1     5.36945    2.96392   -1.23960
       H     3.25149   -0.93455   -0.05850
       O     3.21266   -0.54690   -0.97709
      H1     4.04268    0.05476   -0.90290
       H     9.98727   -4.49840    1.14062
       O     9.32225   -5.17516    1.39121
      H1     8.66858   -4.83842    0.74062
       H     8.59393    2.03763   -3.12181
       O     8.36509    1.22279   -3.57145
      H1     9.00521    1.36737   -4.33414
       H     7.88853    0.85006    0.42276
       O     7.96471    0.88493   -0.55921
      H1     8.84962    0.52243   -0.52699
       H     8.93755   -0.47904   -8.31773
       O     8.95307   -0.55573   -7.31669
      H1     8.03530   -0.69927   -7.07849

