120
frame 0 | Written by MDAnalysis XYZWriter (release 2.4.3)
       H     7.15954   -6.22707  -11.30529
       O     7.96707   -6.13016  -11.79999
      H1     7.69389   -5.57838  -12.52470
       H    10.54650   -2.72959  -11.64510
       O    10.17643   -2.76301  -10.74566
      H1     9.23437   -2.81629  -10.84543
       H     3.77228   -2.79519   -9.09185
       O     3.46114   -3.68019   -8.84253
      H1     2.83696   -3.44038   -8.12791
       H     9.21448  -11.99128   -7.14238
       O     8.33997  -12.09366   -6.64787
      H1     7.75599  -11.60287   -7.23304
       H     2.38483   -4.79764   -4.40442
       O     3.23430   -4.46580   -4.66057
      H1     3.64783   -4.39165   -3.76316
       H     0.52451   -2.69104  -12.10120
       O     0.07430   -2.87275  -11.28079
      H1     0.36169   -3.74991  -11.02368
       H     3.61665  -12.25354   -8.62817
       O     2.69255  -12.06919   -8.34363
      H1     2.83319  -11.95778   -7.38716
       H     7.52729   -5.80600   -7.36358
       O     7.62688   -4.82731   -7.61745
      H1     8.34240   -4.56025   -7.03420
       H     3.36238   -7.47671   -6.18156
       O     2.78589   -7.51337   -6.96261
      H1     3.16895   -8.24729   -7.49820
       H     4.93029   -3.99231   -5.62961
       O     5.79454   -3.62671   -5.87864
      H1     6.13504   -4.26691   -6.57025
       H     5.46521   -6.99589   -5.34231
       O     4.72780   -7.63968   -5.16897
      H1     5.19931   -8.40697   -4.93196
       H     2.62295   -3.15504   -5.78620
       O     2.24381   -2.70641   -6.55323
      H1     2.56060   -1.83010   -6.41656
       H     2.03335   -4.35610  -10.11621
       O     1.35604   -4.98407  -10.54900
      H1     0.72117   -5.13997   -9.84990
       H    -0.55171   -7.83390  -11.90230
       O    -0.05767   -7.33424  -12.51428
      H1     0.86297   -7.68272  -12.41602
       H     3.88415   -4.44979  -15.24735
       O     3.74137   -5.37114  -15.28146
      H1     2.78309   -5.43174  -15.19935
       H     1.94566  -10.62437  -10.53664
       O     1.38317   -9.88647  -10.71545
      H1     1.96999   -9.06880  -10.76875
       H     2.07772   -6.63891  -10.90298
       O     2.45794   -7.50552  -11.21551
      H1     3.12748   -7.23565  -11.89551
       H     2.92341   -2.09034  -12.18819
       O     3.86042   -1.99492  -12.15919
      H1     3.92142   -1.08512  -12.50923
       H     6.32115   -2.57841  -10.33230
       O     5.71013   -1.81411  -10.20294
      H1     5.03683   -1.95162  -10.92896
       H    10.08294   -7.75808   -7.92953
       O    10.36867   -8.05614   -8.79778
      H1    10.34530   -7.19530   -9.26270
       H    10.27707   -4.42177   -8.56506
       O    10.72849   -4.97366   -9.26246
      H1    10.60571   -4.30125   -9.98609
       H     9.25447   -9.26787  -10.61466
       O     8.34025   -9.46060  -10.69083
      H1     7.98647   -8.85377  -11.36718
       H     1.29721   -8.48297   -7.17289
       O     0.57713   -8.84982   -7.68237
      H1     1.15216   -9.12529   -8.43432
       H     6.13066   -8.30539  -13.19397
       O     6.84880   -8.93937  -13.08228
      H1     7.53175   -8.52604  -13.64707
       H     8.51287   -9.67489   -4.40124
       O     7.85059   -9.76437   -5.08015
      H1     8.19015  -10.39388   -5.77136
       H     9.75066   -6.17199  -11.90093
       O    10.61156   -5.92836  -12.23786
      H1    11.27613   -6.30447  -11.65593
       H     4.58906   -2.46128  -13.55179
       O     4.99698   -2.70813  -14.38234
      H1     5.12940   -1.83134  -14.70999
       H    -0.65286   -4.14603   -8.40423
       O     0.24705   -4.25618   -7.97258
      H1     0.20033   -5.18793   -7.63088
       H     7.94429   -4.62921  -10.64122
       O     7.47314   -3.99116  -10.14901
      H1     7.62707   -4.29701   -9.23928
       H     6.72465   -4.00075  -14.14402
       O     7.50452   -4.45959  -13.80759
      H1     7.96667   -3.72486  -13.43413
       H     7.81116  -10.70773  -13.40219
       O     8.49613  -11.39494  -13.45429
      H1     8.72923  -11.55575  -12.54742
       H     4.27977   -6.76713   -7.71978
       O     4.96093   -6.14948   -8.00336
      H1     4.43256   -5.33181   -8.06854
       H     5.25986   -6.79410   -9.70004
       O     5.50246   -7.05696  -10.63910
      H1     4.63877   -7.48003  -10.85263
       H     3.58601   -9.25906   -9.37710
       O     3.75219   -9.59019   -8.42294
      H1     3.41287  -10.50086   -8.25908
       H     6.55770  -12.72266   -9.38969
       O     5.97282  -12.78241   -8.64544
      H1     6.35060  -13.53403   -8.26885
       H     3.82935   -6.56860  -14.16201
       O     3.97031   -7.33662  -13.53440
      H1     3.52692   -8.07158  -14.02313
       H     7.15073   -9.97340   -8.83143
       O     6.90475   -9.95062   -7.94672
      H1     5.96427  -10.00844   -8.16151
       H     6.55095   -7.74853   -7.35443
       O     7.28098   -7.43308   -6.83645
      H1     7.63625   -8.17722   -6.43278
       H     8.75263  -12.61674  -10.45914
       O     7.86988  -12.27375  -10.72347
      H1     7.97132  -11.32354  -10.63337
       H     4.19572  -11.35255  -11.54204
       O     4.72550  -10.57143  -11.48806
      H1     5.53458  -10.99987  -11.78346

