120
frame 11 | Written by MDAnalysis XYZWriter (release 2.4.3)
       H    15.59975  -11.45146   12.84451
       O    15.20982  -12.10575   13.51017
      H1    14.41625  -12.33479   13.08956
       H     9.28104   -3.05975   16.55243
       O     9.91249   -2.91155   15.81929
      H1    10.48728   -3.66740   15.78090
       H     9.19192  -12.91538   13.07083
       O     9.89097  -13.44372   12.66694
      H1     9.94901  -14.23861   13.20231
       H     7.63200   -8.30033   19.78767
       O     7.66034   -9.15965   19.34923
      H1     7.49614   -9.00787   18.40597
       H     8.50327  -14.67845   17.54597
       O     8.85901  -14.74254   18.41114
      H1     9.57838  -14.13617   18.34624
       H    12.82655  -14.44368   15.03950
       O    12.01838  -14.16586   15.47593
      H1    11.24257  -14.48108   14.91812
       H    12.23569  -12.52921   15.06212
       O    12.63609  -11.65202   15.16498
      H1    12.81804  -11.35943   14.27245
       H    14.22398  -11.77274   15.86563
       O    14.88658  -11.75501   16.59192
      H1    14.86624  -10.84215   16.94358
       H     8.88726  -10.15388   14.06572
       O     9.20900   -9.31385   13.71204
      H1     9.61457   -9.57963   12.88968
       H    11.33697   -6.99636   14.60931
       O    11.73120   -7.86001   14.51183
      H1    11.00629   -8.50738   14.32100
       H    11.06790  -10.66343   15.92527
       O    10.30820  -10.58020   16.54516
      H1    10.26989  -11.32646   17.17249
       H    11.21660   -9.69525   17.67858
       O    11.61382   -9.05995   18.27556
      H1    11.19786   -9.22354   19.13466
       H     9.98989  -11.79371   19.52693
       O    10.21339  -12.17196   18.68268
      H1    11.07470  -12.49362   18.84448
       H    13.75871   -7.18778   16.37750
       O    14.16631   -7.19910   15.49266
      H1    13.40440   -7.51744   14.92592
       H    13.48451   -4.02572   18.48289
       O    13.58600   -3.97690   17.52944
      H1    14.52493   -4.26384   17.48923
       H    16.42415  -11.98238   16.05464
       O    17.37844  -11.89218   16.04158
      H1    17.62543  -11.08089   15.52213
       H     5.78876  -11.55187   19.79216
       O     6.06046  -11.67120   18.82846
      H1     6.60472  -10.81653   18.71319
       H    11.47822  -12.55052   12.73501
       O    12.11742  -11.88777   12.46301
      H1    12.22830  -12.04933   11.51067
       H     5.27758  -11.22708   15.11893
       O     5.40912  -11.23667   14.15195
      H1     4.86150  -10.52803   13.90975
       H     8.64263  -15.72492   14.14029
       O     9.00540  -15.23347   14.90999
      H1     8.28701  -14.54223   15.07174
       H    10.96875  -10.48760   11.99899
       O    10.37522  -10.02497   11.45421
      H1    10.80637   -9.15954   11.44130
       H    11.26997   -5.89320   16.57921
       O    11.02713   -5.38216   15.74740
      H1    11.89363   -5.01918   15.45204
       H    14.76887  -15.40880   14.33615
       O    14.33993  -14.62464   14.08887
      H1    15.03665  -14.01459   14.08440
       H    14.66221   -8.08375   18.71808
       O    13.86236   -7.58056   18.46109
      H1    13.11232   -8.20215   18.47105
       H     3.92166  -10.37566   16.77449
       O     4.23548  -11.30501   16.74098
      H1     4.85066  -11.40402   17.53397
       H    13.33659  -13.92832   18.89052
       O    13.14846  -12.99368   18.80138
      H1    13.76121  -12.67153   18.08907
       H     4.47829   -8.40718   19.16031
       O     4.67195   -8.39964   18.22097
      H1     3.84664   -8.12412   17.75188
       H    13.31708   -5.43927   13.37268
       O    13.16824   -6.07459   12.65708
      H1    12.57420   -6.69686   13.06812
       H     8.44059   -5.41176   14.31810
       O     8.37612   -4.54392   13.91236
      H1     8.87163   -3.97835   14.55908
       H    14.39443   -9.12262   11.26859
       O    13.60858   -9.70688   11.25754
      H1    13.86551  -10.54488   10.78399
       H    10.96871   -7.41416   18.26369
       O    10.96461   -6.47039   18.42343
      H1    11.91289   -6.29202   18.44565
       H    12.82166   -3.20540   14.30952
       O    13.29434   -3.96616   14.74870
      H1    13.45328   -3.65377   15.67521
       H    17.13222   -7.12472   14.22956
       O    16.63652   -7.96581   14.17493
      H1    15.79790   -7.78468   14.62683
       H     5.96256   -8.80662   17.14414
       O     6.73557   -9.06625   16.65299
      H1     6.92908   -8.23145   16.16263
       H     6.75504  -13.06893   17.17080
       O     6.77910  -13.86731   16.64600
      H1     5.95432  -14.38996   16.75512
       H    15.44693   -5.96287   16.43655
       O    15.94678   -5.19367   16.87266
      H1    16.67147   -4.91641   16.31784
       H     8.90988  -11.46854   15.52067
       O     8.38638  -11.83202   14.81907
      H1     7.51570  -11.46923   14.89256
       H     6.78217   -7.12941   13.74515
       O     7.55377   -7.24820   14.30467
      H1     8.07829   -7.91208   13.86771
       H    18.76647  -11.05394   18.55019
       O    17.87384  -10.69833   18.35876
      H1    17.65261  -11.01141   17.47578
       H     7.41018   -6.19223   17.03769
       O     6.84068   -5.54301   17.47201
      H1     7.36423   -4.72151   17.42303

