120
frame 10 | Written by MDAnalysis XYZWriter (release 2.4.3)
       H   -15.67124    5.27429  -19.67153
       O   -14.72849    5.52404  -19.45869
      H1   -14.55015    6.44909  -19.76343
       H   -17.29629   -1.23171  -14.90673
       O   -16.74672   -1.24583  -14.11081
      H1   -16.55605   -2.18591  -14.16540
       H    -8.91281    7.90898  -16.04982
       O    -8.36617    8.69414  -15.82953
      H1    -8.31323    9.22395  -16.65602
       H    -5.97199   -1.04420  -13.86160
       O    -6.58876   -0.43358  -14.31252
      H1    -6.98525    0.05965  -13.57899
       H   -15.30973   -2.20371  -16.35991
       O   -14.69457   -1.48375  -16.14210
      H1   -15.25881   -0.94616  -15.56476
       H   -15.25319    4.76227  -17.87538
       O   -15.43433    4.45100  -16.98115
      H1   -14.68716    3.79665  -16.82315
       H   -17.94939   -0.51829  -16.83599
       O   -18.29262   -1.30045  -16.31991
      H1   -17.76022   -1.98392  -16.78512
       H   -17.45716    1.60881  -17.31906
       O   -17.76883    0.81669  -17.79797
      H1   -17.59741    1.01607  -18.73425
       H   -10.71539    7.10578  -17.58063
       O   -10.30323    7.67940  -18.24620
      H1   -10.67348    8.53262  -18.05845
       H   -13.36114    1.40442  -10.64924
       O   -12.85622    2.22252  -10.64361
      H1   -12.94742    2.61421   -9.77156
       H   -10.06325    5.50196  -13.82340
       O    -9.86034    5.96076  -14.63346
      H1    -8.98151    5.64879  -14.93353
       H   -13.13667   -1.42536  -15.11140
       O   -12.34936   -1.40950  -14.55569
      H1   -12.49544   -0.63010  -13.99955
       H   -10.62367    5.29984  -11.35769
       O   -10.48610    4.67846  -12.13447
      H1   -11.39452    4.38631  -12.37757
       H   -15.39377    4.89250  -14.58969
       O   -14.90229    5.34897  -13.89065
      H1   -14.47846    6.04382  -14.43616
       H   -15.43533   -0.81559  -18.92206
       O   -14.48939   -1.02000  -18.78340
      H1   -14.41181   -1.02094  -17.75915
       H    -9.46679    3.36931  -11.56075
       O    -8.72361    2.74558  -11.34920
      H1    -8.11753    2.99127  -12.01390
       H   -10.55864   -3.00836  -13.90077
       O    -9.88706   -3.59913  -14.21352
      H1    -9.99683   -3.62434  -15.13292
       H   -13.07680   -4.68109  -16.11431
       O   -12.82221   -4.73933  -17.02601
      H1   -13.38623   -4.12090  -17.41983
       H    -9.30866    2.05143  -15.01198
       O    -8.49011    1.56050  -14.95978
      H1    -8.69893    0.72285  -15.32806
       H    -8.26898   -2.67274  -19.26592
       O    -8.79043   -1.84902  -19.28004
      H1    -9.69588   -2.13981  -19.45636
       H    -8.94673    4.10290  -18.31423
       O    -8.80414    3.26448  -17.89721
      H1    -9.66840    2.95036  -17.50947
       H   -16.97415    1.34729  -11.82968
       O   -16.93297    1.39540  -12.80504
      H1   -16.82643    0.50116  -13.10197
       H    -8.50162    0.30539  -19.45334
       O    -8.46743    1.22579  -19.73249
      H1    -8.59946    1.86361  -18.97797
       H    -5.97592   -0.99284  -17.36738
       O    -5.67353   -0.12005  -17.04964
      H1    -6.08423   -0.08168  -16.14179
       H   -13.78086    4.30737  -13.19816
       O   -13.03134    3.73071  -12.96134
      H1   -13.22850    3.29368  -12.10543
       H   -10.88742    1.03989  -11.92920
       O   -11.47914    0.31072  -12.21961
      H1   -12.25094    0.74649  -12.62414
       H    -7.25549    5.47157  -16.45586
       O    -7.73799    4.76163  -15.89912
      H1    -7.92851    4.08066  -16.51288
       H   -10.91691   -4.34205  -17.57636
       O   -10.11245   -4.03151  -17.23788
      H1    -9.45344   -4.37458  -17.84390
       H   -10.24771   -1.37977  -17.26343
       O   -10.13192   -0.94427  -16.40147
      H1   -10.95068   -1.22227  -15.93376
       H   -13.08952    3.61496  -17.64343
       O   -12.99436    3.11673  -16.79277
      H1   -12.64177    3.77102  -16.14756
       H    -5.73134    0.90359  -18.45098
       O    -5.69553    1.31897  -19.32990
      H1    -6.65323    1.47649  -19.61053
       H   -17.81435    2.94213  -15.25961
       O   -17.28325    2.68421  -16.02859
      H1   -16.81556    3.38227  -16.42513
       H   -11.72193    2.08996  -16.96322
       O   -10.83131    1.72413  -16.94514
      H1   -10.79009    0.76632  -16.93270
       H   -12.66158    8.95032  -16.78411
       O   -11.90295    9.48256  -16.95566
      H1   -11.47038    9.51574  -16.07043
       H   -12.68756    6.38114  -16.38674
       O   -11.90953    5.80332  -16.45304
      H1   -11.25481    6.25055  -15.89780
       H   -14.69449    0.91947  -13.17472
       O   -13.79206    1.19783  -13.39032
      H1   -13.70582    2.20839  -13.37958
       H   -13.80482    8.09962  -14.00100
       O   -13.91767    7.72221  -14.91719
      H1   -14.90250    7.70552  -14.99879
       H   -13.00254   -3.78827  -19.39188
       O   -13.90717   -3.67449  -19.27904
      H1   -14.08179   -2.73818  -19.21811
       H    -7.40727    2.94945  -14.04875
       O    -6.74311    3.21342  -13.36740
      H1    -6.53155    4.18660  -13.50809
       H   -17.50539    5.39059  -18.84640
       O   -17.21253    4.65380  -19.46397
      H1   -17.43991    4.88237  -20.37375

