120
frame 0 | Written by MDAnalysis XYZWriter (release 2.4.3)
       H    -4.07670    7.92914   10.38081
       O    -3.27594    8.03196    9.81813
      H1    -3.12199    9.01161    9.81924
       H    -2.66187   14.63656    7.77484
       O    -2.07028   14.64938    6.97150
      H1    -1.16419   14.84301    7.38076
       H     0.21800   10.53150   14.08619
       O    -0.03594   11.12445   13.32462
      H1     0.64367   11.01650   12.68795
       H    -2.94060   10.62744   12.52779
       O    -2.26842    9.86946   12.38968
      H1    -1.46243   10.38308   12.61634
       H     2.85710   13.19841   13.43937
       O     3.01722   14.10282   13.14265
      H1     3.11230   14.06110   12.16617
       H    -3.27740   17.47463   11.06877
       O    -3.73766   17.93614   11.83167
      H1    -3.08279   18.64919   12.00383
       H    -0.12356   12.05045    8.30511
       O    -0.70556   11.93038    9.10796
      H1     0.04532   11.63632    9.59393
       H    -3.22773   13.74017    5.77063
       O    -3.80678   13.10763    5.32233
      H1    -4.23443   12.65249    6.03019
       H    -5.39063   16.48463    6.45298
       O    -4.85088   15.71034    6.60709
      H1    -5.15222   15.11628    5.79817
       H    -6.41143   15.41590   14.09642
       O    -6.40940   14.83412   14.92682
      H1    -5.51170   15.12091   15.33766
       H    -1.03596   15.14646   15.95428
       O    -0.09958   15.20004   15.77383
      H1    -0.15717   14.65532   14.94102
       H     0.52198   16.88614   14.90012
       O     1.13730   17.31123   14.24001
      H1     0.66539   17.35040   13.42311
       H    -6.75362   14.77938    9.08745
       O    -6.60683   14.24358    8.29012
      H1    -6.01849   14.81550    7.81801
       H     2.00144   14.45013    5.11220
       O     1.03965   14.41894    5.33187
      H1     0.56463   14.38829    4.48250
       H    -8.93087   15.51335    7.18916
       O    -8.33709   15.24243    6.43977
      H1    -7.61598   14.71018    6.87199
       H    -0.02868   12.92812    5.85303
       O    -0.63054   12.19764    6.23050
      H1    -1.35098   12.80634    6.45542
       H    -1.59266    8.22093   10.27321
       O    -0.68249    7.92179   10.52056
      H1    -0.42787    7.46881    9.68339
       H    -7.99135   11.34181   10.17258
       O    -7.42065   11.38574   10.97395
      H1    -6.59982   11.88223   10.68639
       H    -3.26931   15.36073   15.88331
       O    -3.71866   15.76478   15.15253
      H1    -3.59307   16.70676   15.44495
       H     2.83399   12.35863    7.78476
       O     2.01896   11.85877    7.90721
      H1     1.90678   11.59130    6.92761
       H     0.71266   15.80905   11.44895
       O     0.18630   16.59027   11.81697
      H1    -0.52819   16.05996   12.21529
       H    -5.42827   11.11336    7.70186
       O    -5.01710   11.98349    7.71352
      H1    -5.69326   12.60968    7.88926
       H    -5.08541    9.82696   11.77536
       O    -5.02866    8.88343   11.81342
      H1    -4.13505    8.71412   12.08551
       H    -3.60893   12.45747   11.53490
       O    -4.13620   11.86920   12.08113
      H1    -4.18597   12.21958   13.01425
       H    -4.07164   12.77621   15.86822
       O    -3.76947   12.20244   15.09360
      H1    -3.44124   11.36788   15.40857
       H    -7.32938   16.70231   11.29959
       O    -7.20412   16.51929   10.33586
      H1    -8.08191   16.69816    9.93023
       H    -1.88718   13.05478    9.92378
       O    -2.49700   13.44510   10.58011
      H1    -2.48326   14.37994   10.27042
       H    -2.86971   16.74310    9.18819
       O    -2.50846   16.27889    9.97873
      H1    -1.58685   16.49722    9.87230
       H     1.73348   13.18648   10.43245
       O     1.73446   14.13152   10.42617
      H1     1.32925   14.37924    9.53692
       H     0.58500   18.51724    9.34282
       O    -0.08091   17.79515    9.39516
      H1     0.06256   17.64050   10.36525
       H    -1.95191   13.90994   12.81978
       O    -1.68588   14.77316   13.16319
      H1    -2.54623   15.07564   13.49098
       H     0.29982   16.09631    8.50045
       O     0.42935   15.19024    8.17858
      H1     1.17475   15.35405    7.52003
       H    -2.35301   11.25207    9.14397
       O    -3.05279   10.62016    9.01248
      H1    -3.73893   11.18398    8.69530
       H     4.46503   14.15944    9.31174
       O     4.22728   14.38372   10.24841
      H1     3.29217   14.36362   10.13733
       H    -6.78760   16.97020   14.04510
       O    -7.11559   16.75562   13.13937
      H1    -8.02212   16.46638   13.30777
       H    -2.86276   16.76897    6.56498
       O    -2.33901   17.61695    6.72858
      H1    -2.58072   18.12894    5.96264
       H    -2.32473    9.43716    7.49810
       O    -2.26588    8.81224    6.81199
      H1    -1.66781    9.29743    6.14571
       H    -0.14779   17.10867    4.41383
       O    -0.00848   17.68497    5.14003
      H1    -0.63490   17.31205    5.82049
       H    -5.89018   17.55968    9.49475
       O    -5.43142   18.38696    9.73163
      H1    -5.02796   18.14544   10.62545
       H     2.47854   10.25051   10.29713
       O     1.99684   11.08568   10.45924
      H1     2.19362   11.43457    9.59874

