120
frame 0 | Written by MDAnalysis XYZWriter (release 2.4.3)
       H   -13.18292    6.90435   14.51152
       O   -12.64234    6.59382   15.21758
      H1   -12.01998    7.35077   15.35960
       H   -17.91946    5.44898   10.20193
       O   -17.70844    6.16031    9.55639
      H1   -17.40468    5.75695    8.76130
       H   -18.91433    3.49901   11.79750
       O   -18.39321    3.71180   10.99568
      H1   -17.67299    3.04093   11.05099
       H   -15.03272    7.83112   10.11821
       O   -15.32027    6.97389   10.60490
      H1   -16.20129    6.85557   10.22850
       H   -13.38093    9.00154   12.63864
       O   -13.48951    9.96892   12.64331
      H1   -12.59424   10.16909   12.96753
       H   -14.32874   10.53105    6.78345
       O   -15.10834   10.42896    7.32771
      H1   -14.73053    9.72005    7.86331
       H   -15.30672    7.55780   13.44503
       O   -14.59775    6.96802   13.12815
      H1   -14.83044    7.01679   12.24455
       H   -10.01533    5.06302    8.25812
       O    -9.83284    5.98131    8.45973
      H1    -9.67572    5.90558    9.40190
       H   -18.35584    9.97506    6.95293
       O   -17.82729   10.76424    7.14318
      H1   -16.98132   10.44573    7.36491
       H   -15.22265    9.70481   14.17291
       O   -15.98662    9.09711   14.08885
      H1   -16.43836    9.57638   13.35763
       H   -12.25719   11.10556    9.30990
       O   -11.72087   10.39764    8.89068
      H1   -12.03871   10.21324    8.00195
       H   -10.51422   10.03161   14.01092
       O   -10.82057   10.49699   13.23187
      H1   -10.70458    9.82006   12.56176
       H   -15.20633    7.73155    4.59965
       O   -15.36365    7.30440    5.44956
      H1   -14.81173    7.86836    5.98774
       H   -11.55131    7.63707   10.75723
       O   -11.44669    8.49601   11.26198
      H1   -11.31427    9.13799   10.52940
       H   -18.20196    7.32254   14.17541
       O   -18.94403    7.94022   14.24486
      H1   -19.69647    7.36394   14.00935
       H   -18.78913   10.57397    9.74346
       O   -18.54961    9.64669    9.94299
      H1   -17.72820    9.65991    9.42764
       H   -17.23046    4.49363   14.34467
       O   -18.07350    4.81159   14.69538
      H1   -17.91771    5.36950   15.51478
       H    -9.26075    6.91255   11.67109
       O    -8.93010    6.43037   10.90635
      H1    -8.91490    5.51164   11.31633
       H   -11.48436    6.56513    8.66416
       O   -12.36803    6.77173    9.19409
      H1   -12.74313    5.85424    9.12866
       H   -10.82701   12.96505   12.25156
       O   -11.64038   13.40411   11.95688
      H1   -12.20779   12.60118   11.82482
       H   -18.29870    9.94672   11.84377
       O   -18.41372   10.07888   12.85926
      H1   -18.80677    9.21198   13.12796
       H   -15.68974    2.68453   12.48609
       O   -15.72687    1.98884   11.80147
      H1   -16.32953    1.32495   12.22001
       H   -15.77365    2.25293    8.44135
       O   -16.23752    1.51094    8.06423
      H1   -16.71218    1.96601    7.31223
       H   -12.37600   11.78711    6.11440
       O   -12.66625   10.84896    6.25821
      H1   -12.57792   10.44164    5.35698
       H   -15.24370    5.12521   13.23906
       O   -15.68214    4.28444   13.48050
      H1   -15.23244    4.08483   14.34605
       H   -15.65121    5.83058    6.48042
       O   -16.04713    5.53064    7.32250
      H1   -15.23315    5.27792    7.76870
       H   -15.42413   12.10919   12.71260
       O   -15.08470   12.33842   13.58449
      H1   -15.90981   12.22941   14.06668
       H    -9.79920    7.01873    5.00755
       O   -10.57370    6.45706    4.85330
      H1   -11.17748    6.58977    5.59162
       H   -13.17584    4.76543    7.17497
       O   -13.48287    4.64387    8.09501
      H1   -12.91420    3.84729    8.26489
       H   -16.86562   12.71282   11.18172
       O   -15.98111   12.43013   10.94546
      H1   -15.69746   13.32840   10.63325
       H   -12.06187    2.43949   11.71435
       O   -11.39421    3.05798   12.07924
      H1   -11.84232    3.53314   12.79926
       H   -14.06043    6.27022    5.29704
       O   -13.54782    5.41503    5.37742
      H1   -13.88241    4.89555    4.61236
       H   -17.89226   11.34030   14.00810
       O   -17.63170   12.08912   14.69140
      H1   -18.24880   12.82508   14.57154
       H   -16.77981    4.04029    6.76925
       O   -17.35464    3.26718    6.51442
      H1   -18.05343    3.41811    7.10532
       H   -19.36950    8.27614    7.90814
       O   -19.29099    8.65308    6.99304
      H1   -19.20422    7.80605    6.49730
       H   -13.55491   11.08406   11.50595
       O   -13.43679   11.64043   10.68109
      H1   -14.28315   12.02618   10.57823
       H   -18.63319   12.86405    9.46615
       O   -19.09526   12.07972    9.09487
      H1   -18.52734   11.74406    8.39069
       H   -19.66383    4.58913    7.93930
       O   -19.36894    3.68204    8.05227
      H1   -18.76142    3.77677    8.82653
       H   -13.52314    9.79353    9.71061
       O   -14.07653    9.02221    9.42107
      H1   -13.30244    8.37764    9.19675
       H   -16.12553   11.83356    4.42697
       O   -16.06780   10.88150    4.39896
      H1   -15.69639   10.72877    5.27367

