120
frame 0 | Written by MDAnalysis XYZWriter (release 2.4.3)
       H   -15.11438    0.05648   -9.85588
       O   -14.94498    0.99787   -9.66795
      H1   -14.41904    1.21507  -10.47677
       H   -13.37067    3.24689  -10.93823
       O   -13.38411    2.35893  -11.31877
      H1   -14.23231    2.47707  -11.78461
       H   -13.32260    4.67752   -7.44458
       O   -13.58158    5.61324   -7.36678
      H1   -13.98226    5.86561   -8.21040
       H   -17.59228    1.46973   -8.38412
       O   -18.40767    1.02252   -8.61165
      H1   -18.15285    0.08006   -8.61249
       H    -8.56431    0.98178   -8.65068
       O    -8.69747    0.03901   -8.80357
      H1    -9.07158   -0.22391   -7.92826
       H   -14.60369    2.68756   -6.78685
       O   -13.85300    2.92090   -7.35636
      H1   -14.20907    2.72042   -8.23970
       H   -15.74914    3.32841  -12.99371
       O   -15.66246    2.42574  -12.67867
      H1   -16.45817    2.27390  -12.10237
       H   -18.88929   -2.43662  -14.20529
       O   -17.99848   -2.75157  -13.95699
      H1   -17.52432   -1.92406  -13.91948
       H   -12.20045   -4.11743   -8.72764
       O   -12.06172   -3.21411   -9.07545
      H1   -12.30805   -2.63532   -8.31374
       H   -13.92158   -4.80031   -7.64239
       O   -14.27409   -4.50443   -6.82065
      H1   -14.73537   -3.70672   -7.18246
       H   -15.58423    5.46105  -13.30408
       O   -15.81816    4.86732  -14.07570
      H1   -15.01141    4.92575  -14.66091
       H   -18.14146    2.85734  -10.85763
       O   -17.86950    1.99456  -11.12006
      H1   -18.11137    1.49951  -10.32044
       H   -16.71432   -0.06985  -12.43541
       O   -16.64957   -0.33983  -13.35763
      H1   -16.81724    0.43942  -13.87341
       H   -15.99595    7.29630   -9.20299
       O   -16.49280    6.60746   -8.70303
      H1   -17.44124    6.76124   -9.04056
       H   -14.90484   -0.05624   -5.82217
       O   -14.87752    0.02810   -6.79798
      H1   -14.02808   -0.43529   -7.06732
       H   -17.50188   -2.40342   -6.66830
       O   -18.22593   -2.31266   -6.00314
      H1   -17.82975   -2.75177   -5.21862
       H    -9.94827    0.24476   -9.92736
       O   -10.59538    0.52047  -10.64013
      H1   -11.40526    0.53262  -10.08210
       H   -15.15764   -1.48476  -10.73486
       O   -16.05776   -1.59634  -10.38925
      H1   -16.51790   -2.02344  -11.10515
       H   -17.58160    3.77281   -6.39997
       O   -17.79823    4.71220   -6.55538
      H1   -17.61770    4.90045   -7.50121
       H   -17.71410   -3.73606  -12.37431
       O   -17.34569   -3.85490  -11.49067
      H1   -16.42110   -4.05103  -11.58197
       H   -11.56979   -1.84025  -14.17298
       O   -11.99904   -1.11517  -13.73451
      H1   -11.34959   -0.42319  -13.62681
       H   -16.09032   -2.18148   -8.55065
       O   -16.18367   -2.20116   -7.60597
      H1   -15.64477   -1.42299   -7.24748
       H   -12.80007   -1.41492  -11.72394
       O   -13.32682   -1.54908  -10.90613
      H1   -12.78057   -2.24924  -10.42472
       H   -16.64113    2.39879  -15.88510
       O   -17.11530    2.00905  -15.12890
      H1   -16.56993    2.34017  -14.38646
       H   -13.33592    3.91262  -15.33044
       O   -13.96505    4.33282  -15.94078
      H1   -14.46415    3.58199  -16.30089
       H   -13.54424    7.40583  -12.27589
       O   -13.76697    6.70513  -12.90242
      H1   -12.91707    6.58649  -13.36751
       H   -16.59248    2.23100   -5.29736
       O   -17.04693    2.08155   -6.12329
      H1   -17.68419    1.42635   -5.72872
       H    -9.81814   -1.22683   -5.83566
       O   -10.31533   -1.06612   -6.68179
      H1   -10.49108   -0.16724   -6.49440
       H   -12.56270   -2.73645   -6.16899
       O   -12.76666   -2.00076   -6.75082
      H1   -11.88419   -1.55510   -6.63991
       H   -10.98296    3.76225   -8.98275
       O   -10.28470    3.98229   -9.59714
      H1   -10.53245    3.55689  -10.41887
       H   -14.53592   -3.55619  -11.83181
       O   -14.89263   -4.31739  -12.33182
      H1   -15.03637   -4.06498  -13.27504
       H    -9.33332   -0.40056  -13.80726
       O    -9.63465    0.42472  -13.37327
      H1    -9.48999    0.20177  -12.46650
       H   -19.80565    4.56688  -10.88533
       O   -19.24857    4.32020  -10.10669
      H1   -19.83984    4.64924   -9.47972
       H   -12.73260    5.24810  -10.39272
       O   -13.65255    4.92891  -10.43790
      H1   -13.77758    5.17718  -11.36537
       H   -11.32898    1.78779   -7.33082
       O   -11.67248    1.25961   -8.06854
      H1   -12.63495    1.16262   -7.88626
       H   -13.13883    0.13381  -13.91759
       O   -13.75021    0.80831  -14.23335
      H1   -14.29196    1.07476  -13.49769
       H   -11.09162    2.82774  -12.42622
       O   -10.25160    2.86670  -11.96517
      H1   -10.41794    2.06950  -11.42495
       H   -18.55558   -2.35328  -10.49316
       O   -19.12684   -2.00139   -9.81666
      H1   -19.33293   -2.94881   -9.47766
       H   -12.64718    2.40417  -14.34384
       O   -12.21673    3.20584  -14.12172
      H1   -11.32623    2.98204  -14.52186
       H   -14.06635   -2.16856  -15.78896
       O   -14.00478   -1.27489  -16.21127
      H1   -14.00495   -0.71782  -15.42529

