120
frame 0 | Written by MDAnalysis XYZWriter (release 2.4.3)
       H   -13.04494  -18.16725   -5.87108
       O   -13.61393  -17.33741   -5.74030
      H1   -13.21910  -17.16338   -4.89035
       H    -7.15753  -13.13641    2.20934
       O    -7.77261  -13.83683    2.20255
      H1    -7.39569  -14.45000    2.88015
       H   -10.09474  -15.24581    0.20470
       O   -10.05273  -14.74474    1.05373
      H1    -9.06304  -14.58724    1.15216
       H   -14.55987  -16.29716    5.47416
       O   -14.22799  -16.88512    6.17364
      H1   -13.54304  -16.31474    6.50715
       H   -10.40159  -16.15595    4.08610
       O    -9.77294  -15.41763    3.99912
      H1   -10.04197  -14.97166    3.19872
       H   -11.66763  -15.24118    5.73224
       O   -12.29005  -15.02182    6.44338
      H1   -11.83120  -14.22607    6.85603
       H   -11.14443  -13.68551   -2.73861
       O   -11.38967  -13.80439   -3.66772
      H1   -10.75253  -14.55751   -3.86885
       H    -6.81179  -13.64683   -1.74200
       O    -6.82235  -14.62833   -1.79969
      H1    -6.34175  -14.79204   -0.92821
       H    -4.90663  -15.98621    0.48833
       O    -5.78490  -15.57956    0.50638
      H1    -6.39676  -16.20313    0.87912
       H   -15.28475  -18.58270    3.82873
       O   -14.63210  -19.23981    4.17034
      H1   -14.66665  -19.06805    5.14714
       H   -16.20341  -11.45389   -0.74805
       O   -16.48243  -12.29991   -0.42083
      H1   -17.25901  -12.46732   -0.99608
       H   -13.07155  -10.42508   -1.08775
       O   -13.32684  -10.72887   -0.20441
      H1   -13.23429  -11.68771   -0.26928
       H   -11.91227  -17.51139    3.19384
       O   -11.75214  -17.41584    4.17379
      H1   -12.55148  -17.84956    4.47848
       H    -8.07017  -18.87595   -2.87146
       O    -7.14619  -18.66129   -3.21323
      H1    -7.39856  -18.22528   -4.03584
       H    -8.41040  -15.22208   -3.09106
       O    -9.05572  -15.43574   -3.80967
      H1    -8.44568  -15.44769   -4.58276
       H    -7.75797  -16.33430    6.71913
       O    -7.89279  -16.87568    5.95531
      H1    -8.64548  -17.48921    6.15898
       H   -13.76311  -14.09179    0.04944
       O   -14.06303  -13.33853   -0.47546
      H1   -14.95513  -12.99698   -0.23840
       H   -17.71060  -17.60905   -2.40203
       O   -18.23922  -17.88169   -3.15586
      H1   -18.25241  -18.84637   -2.99842
       H    -9.08098  -18.86365   -0.15288
       O    -8.95717  -19.87535   -0.11586
      H1    -7.97634  -19.93566   -0.40834
       H   -10.79394  -10.83915    4.62613
       O   -10.98955  -11.53448    5.27148
      H1   -10.16233  -12.04598    5.30587
       H    -7.04763  -15.62044    4.75215
       O    -6.67574  -15.48308    3.90192
      H1    -6.68087  -16.39560    3.50404
       H   -10.55171  -13.73650   -0.09883
       O   -10.51322  -13.33941   -0.98749
      H1    -9.58105  -13.18587   -1.12998
       H    -6.11148  -18.17907    2.32305
       O    -6.97288  -17.76153    2.37213
      H1    -7.45043  -18.30203    3.03077
       H   -14.65373  -14.72789    3.50702
       O   -15.25341  -15.19007    4.14443
      H1   -15.56250  -14.45862    4.80813
       H   -15.00910  -14.71264   -3.37590
       O   -14.75866  -15.26752   -2.57635
      H1   -14.45868  -14.55608   -1.99443
       H   -10.16246  -17.35338    7.44631
       O   -10.12141  -18.18483    6.88525
      H1   -10.92139  -18.06348    6.37691
       H   -15.93078  -16.26782   -1.76657
       O   -16.51295  -16.91542   -1.33663
      H1   -17.28623  -16.42986   -1.03740
       H    -8.18195  -12.77709    5.30514
       O    -8.87928  -13.29860    5.69869
      H1    -9.05190  -13.99299    5.07391
       H   -15.22793  -17.53794    0.12994
       O   -14.33186  -17.95260    0.01776
      H1   -14.35568  -18.05779   -0.88145
       H   -12.62085  -17.62087    0.65711
       O   -11.89791  -17.33646    1.23165
      H1   -11.32207  -18.18874    1.27073
       H    -9.45059  -16.44019    1.15490
       O    -8.97355  -17.14440    0.63344
      H1    -8.17528  -17.31159    1.18485
       H   -17.62820  -13.39086    3.58911
       O   -17.13606  -12.62261    3.34111
      H1   -16.38387  -13.04317    2.95777
       H   -12.22660  -12.04223    3.95830
       O   -13.09609  -12.09743    3.54946
      H1   -13.27804  -11.45522    2.85186
       H   -18.77018  -14.98349   -0.34523
       O   -18.64449  -15.93742   -0.12464
      H1   -18.76718  -15.91311    0.82067
       H   -13.99010  -18.16509   -3.13118
       O   -14.03662  -19.03188   -2.69023
      H1   -14.84628  -19.42751   -2.99333
       H   -16.16815  -16.65790    3.76181
       O   -16.72546  -17.40535    3.43727
      H1   -17.04293  -17.60802    4.31928
       H   -12.76482  -15.37395    1.91444
       O   -13.42089  -14.61760    1.99273
      H1   -12.88827  -13.89412    2.33153
       H   -18.13365  -16.17642    3.02335
       O   -18.73690  -15.39290    3.02020
      H1   -19.36919  -15.69051    3.67756
       H   -12.57876  -15.70455   -3.37724
       O   -12.48369  -16.67982   -3.39830
      H1   -11.54854  -16.85352   -3.41321
       H    -9.95185  -18.99038   -4.16932
       O   -10.18317  -18.25930   -3.57225
      H1    -9.98891  -17.42345   -4.01943

