120
frame 3 | Written by MDAnalysis XYZWriter (release 2.4.3)
       H   -11.66075   10.32662  -13.72158
       O   -12.19476    9.62916  -13.44121
      H1   -12.40013    9.71132  -12.48643
       H    -4.92343   11.32274  -13.68116
       O    -5.50503   11.77333  -13.00871
      H1    -6.15856   11.10028  -12.80261
       H    -3.71445   14.16251  -11.59994
       O    -4.27939   13.56520  -11.16253
      H1    -4.62853   12.94728  -11.80928
       H    -6.35726   14.77673  -15.32967
       O    -5.80440   14.73239  -16.13549
      H1    -5.66204   15.62302  -16.50914
       H    -2.78800   17.00951  -13.05958
       O    -2.57052   17.68889  -13.66115
      H1    -2.67269   17.40717  -14.63423
       H    -4.21536   18.64030  -13.21632
       O    -5.18265   18.59891  -13.25674
      H1    -5.61501   19.27578  -12.65081
       H   -10.49136   13.82966  -10.80327
       O   -11.19048   13.25492  -10.38105
      H1   -11.86221   13.19959  -11.06587
       H   -13.25075   12.31544  -12.78591
       O   -13.39927   12.02465  -11.85210
      H1   -14.29083   12.18404  -11.59968
       H    -7.08966    9.03486   -9.46708
       O    -7.87015    8.80953   -9.96296
      H1    -8.67091    8.88002   -9.41833
       H   -10.23946   16.86955   -8.58805
       O    -9.81652   17.22028   -9.34888
      H1    -9.06687   17.72852   -9.03848
       H    -8.05250   11.00139   -4.55628
       O    -7.88466   11.91758   -4.99617
      H1    -8.59236   11.96693   -5.64442
       H    -9.75452   10.61064  -10.96105
       O   -10.53524   10.44247  -10.32877
      H1   -10.82497   11.33697  -10.12363
       H   -11.73463   15.68906  -13.71519
       O   -11.01561   15.03792  -13.55852
      H1   -10.67875   14.92480  -14.46046
       H    -6.30641   13.78016  -11.02519
       O    -7.17730   13.74990  -10.72920
      H1    -7.72718   14.37511  -11.21879
       H    -9.20471   18.52870  -12.59201
       O    -8.67059   18.32134  -11.79680
      H1    -8.19375   17.50167  -12.03060
       H   -10.75287   16.93608   -6.17419
       O   -11.13022   16.39143   -6.92260
      H1   -12.07650   16.60496   -6.98147
       H   -12.19146   13.46144  -14.30584
       O   -13.11923   13.13684  -14.49179
      H1   -13.21088   13.01699  -15.45256
       H    -4.23260    8.95286  -13.92693
       O    -4.50722    9.62619  -14.58556
      H1    -5.45829    9.45835  -14.61250
       H    -6.30722   16.55361  -11.32664
       O    -6.79976   16.40388  -12.12906
      H1    -6.32973   17.06972  -12.63136
       H    -8.25998   17.67155  -16.34504
       O    -8.47391   17.09101  -15.58249
      H1    -8.77994   17.76616  -14.97014
       H    -1.11346   11.75949  -10.21360
       O    -2.05681   11.51049  -10.25728
      H1    -2.61454   12.26575  -10.38834
       H    -7.27886   18.52233   -7.67443
       O    -6.94828   19.09350   -8.33454
      H1    -6.46936   18.41262   -8.86095
       H    -8.11674   16.26849   -7.23282
       O    -7.97320   17.10508   -6.75611
      H1    -7.19260   16.89873   -6.26489
       H    -8.89816   15.22142  -15.30512
       O    -9.47587   14.53239  -15.70775
      H1    -9.10187   13.72924  -15.25490
       H    -6.95985   12.79594  -18.64691
       O    -6.38053   12.57255  -17.82199
      H1    -6.46132   13.34149  -17.24495
       H    -9.76864   11.10563   -7.38421
       O    -9.73931   12.04445   -7.02428
      H1   -10.52886   12.46407   -7.30866
       H    -4.08612   13.84857  -15.12258
       O    -3.15915   13.86027  -15.35847
      H1    -2.75027   13.55081  -14.53023
       H    -6.80761   13.22552  -13.31988
       O    -7.13316   13.92143  -13.86288
      H1    -7.47316   14.60654  -13.26584
       H   -11.87674   13.79943   -8.42104
       O   -11.83659   13.79615   -7.45530
      H1   -11.47179   14.66156   -7.13695
       H   -10.44459    8.87943   -7.55554
       O    -9.61706    9.32837   -7.75532
      H1    -8.97898    9.09911   -7.10922
       H    -7.70698   14.18291   -8.84046
       O    -7.97746   14.29909   -7.89620
      H1    -8.53661   13.47346   -7.80286
       H   -10.94687   18.46846  -14.27104
       O   -10.08506   18.88898  -14.09859
      H1   -10.23165   19.78644  -13.75016
       H   -10.93949   20.04586  -11.27821
       O   -11.15229   19.60966  -10.43042
      H1   -10.72142   18.69713  -10.39335
       H    -3.50700   15.16033   -7.54713
       O    -3.34483   14.98363   -8.47979
      H1    -2.51945   15.36838   -8.75669
       H    -2.06636   16.21171  -11.03802
       O    -2.91159   16.06640  -11.45970
      H1    -3.61002   15.99291  -10.74329
       H    -9.91043   15.45948  -11.88164
       O    -9.44244   15.04863  -11.19623
      H1    -9.30784   15.74056  -10.53922
       H    -8.82319   11.61474  -15.36083
       O    -9.27152   11.99372  -14.61259
      H1    -8.74315   11.69822  -13.81020
       H    -2.57249   11.98552   -8.56440
       O    -3.03336   12.37507   -7.78483
      H1    -3.29693   13.24047   -8.18353
       H    -4.75313   16.46556   -9.17912
       O    -5.22716   17.11032   -9.71294
      H1    -4.62014   17.86529   -9.71440
       H    -7.89491   11.97762  -11.14804
       O    -7.98006   11.14961  -11.58012
      H1    -7.60924   10.48016  -10.99879

