120
frame 0 | Written by MDAnalysis XYZWriter (release 2.4.3)
       H    -6.73879  -14.09605    7.93444
       O    -5.89348  -14.11921    7.43030
      H1    -5.31656  -13.56098    7.98273
       H    -9.06562  -14.76662    8.63518
       O    -8.42305  -14.10284    8.36811
      H1    -8.82396  -14.02000    7.49796
       H    -0.89529   -7.78644    9.63518
       O    -0.46734   -8.54396   10.02819
      H1     0.10046   -8.94619    9.30448
       H    -2.70481  -11.63134    6.08900
       O    -2.72839  -10.78770    5.59883
      H1    -1.79886  -10.62217    5.70648
       H    -7.79624  -12.40538   14.71847
       O    -7.26649  -11.62553   14.99078
      H1    -7.05777  -11.33984   14.08436
       H    -8.20057   -8.36665    9.48721
       O    -7.30767   -8.57434    9.68398
      H1    -6.78096   -7.80590    9.61342
       H    -5.08316  -16.02881    9.67426
       O    -6.03941  -15.81003    9.52316
      H1    -5.94400  -15.14998    8.78375
       H    -6.55515  -13.19095   11.34550
       O    -6.87714  -13.84065   12.01299
      H1    -6.66656  -14.70017   11.68871
       H    -5.64803  -13.66187   13.75731
       O    -4.99830  -14.08981   14.34943
      H1    -5.00525  -13.48042   15.16841
       H    -7.90620   -8.27256   12.92091
       O    -7.99210   -7.66255   13.66165
      H1    -8.36766   -8.23041   14.30417
       H    -7.50942   -9.57969   11.25079
       O    -7.31559   -9.88623   12.16542
      H1    -6.34527   -9.74682   12.18540
       H    -3.14354   -8.74479   15.56242
       O    -4.04667   -8.98594   15.35342
      H1    -4.47619   -8.13307   15.23215
       H    -0.90735   -7.73032    7.13927
       O    -1.75068   -7.46613    7.49635
      H1    -1.97103   -6.56015    7.17829
       H    -5.58016  -11.77288   15.86921
       O    -4.76779  -12.18692   16.17173
      H1    -4.91729  -11.99885   17.12628
       H    -4.45533  -17.64688   10.99526
       O    -3.79140  -17.06727   10.60480
      H1    -3.34965  -17.62948    9.98260
       H    -7.09287   -8.61678    6.91349
       O    -7.39920   -7.71179    6.67990
      H1    -8.26212   -7.66745    7.10782
       H    -5.22447   -9.72238    7.38438
       O    -6.05486  -10.24765    7.41041
      H1    -6.45219  -10.07573    8.30016
       H    -3.27157  -11.55430   11.60508
       O    -3.31668  -11.82737   10.69385
      H1    -3.15288  -11.04536   10.21681
       H    -3.12410  -10.48842    7.62172
       O    -3.06642   -9.78299    8.26673
      H1    -2.60715   -9.06850    7.69773
       H     0.10440  -10.57610    7.59305
       O    -0.37207  -10.13043    6.88584
      H1     0.31070   -9.54003    6.60022
       H    -2.40808  -12.85958    8.11279
       O    -3.09049  -12.92235    7.40132
      H1    -2.88771  -13.80933    6.99633
       H    -1.35592  -13.73181    9.83640
       O    -1.38970  -12.82086    9.48556
      H1    -2.16939  -12.44680    9.96272
       H    -2.24753  -15.69675   10.35252
       O    -1.34713  -15.41421   10.07360
      H1    -0.83105  -16.22262   10.40323
       H     1.25199   -9.16791   12.57011
       O     0.39666   -9.58327   12.32088
      H1     0.05715   -9.14071   11.46194
       H    -3.65471  -15.16432   15.08366
       O    -3.04515  -15.87525   15.30781
      H1    -3.25396  -15.83514   16.29210
       H    -8.18195  -12.77709    5.30514
       O    -8.87928  -13.29860    5.69869
      H1    -9.05190  -13.99299    5.07391
       H   -10.42129   -8.84930    8.04366
       O    -9.76525   -8.22201    8.37185
      H1   -10.31657   -7.49212    8.53729
       H    -1.92009  -15.57739    6.69873
       O    -2.79101  -15.32392    6.35190
      H1    -2.56312  -15.42200    5.37342
       H    -3.30467  -12.13001   14.87456
       O    -2.80059  -11.76738   14.11057
      H1    -2.35835  -12.52421   13.65268
       H    -9.84228  -13.68401   14.26025
       O    -8.85777  -13.68743   14.38042
      H1    -8.55459  -13.77118   13.46183
       H    -3.75678   -9.30826   12.15032
       O    -4.34442   -9.90846   12.58929
      H1    -4.28010   -9.65388   13.53757
       H    -4.30811   -6.39387    7.96658
       O    -4.09437   -5.63545    7.39292
      H1    -4.98717   -5.38516    7.01637
       H    -1.55434  -10.68401   14.82934
       O    -0.86242  -10.01146   15.04044
      H1    -0.60799   -9.53092   14.27844
       H    -5.88471  -11.36857    6.14444
       O    -6.13151  -12.10283    5.53936
      H1    -6.13850  -12.71414    6.33022
       H     0.00895  -12.07037    8.95113
       O     0.74804  -11.48502    8.79703
      H1     1.26126  -11.95821    8.16067
       H    -9.76543  -14.13866   11.29085
       O    -9.13950  -14.90259   11.29596
      H1    -8.36160  -14.38478   10.96530
       H    -3.98506   -8.55658    9.24009
       O    -4.34686   -7.63128    9.34213
      H1    -3.81098   -7.30634   10.09404
       H    -1.82049  -15.20790   14.06317
       O    -1.47001  -14.62460   13.38643
      H1    -1.50607  -15.11463   12.59826
       H    -5.18676  -11.56472   10.53711
       O    -6.12128  -11.78283   10.34214
      H1    -6.59318  -11.21723   10.98503
       H    -1.70562   -7.91572   11.99173
       O    -2.64722   -7.84416   11.96450
      H1    -2.84263   -7.09566   12.59972

