120
frame 6 | Written by MDAnalysis XYZWriter (release 2.4.3)
       H     9.97183    5.42114  -11.80642
       O    10.48682    5.30238  -11.03784
      H1     9.84066    4.92529  -10.38772
       H     8.00176    8.98930  -12.25107
       O     8.81166    9.44305  -12.50492
      H1     9.38609    9.23514  -11.77103
       H    12.31269    9.57643  -13.73635
       O    12.07599   10.51607  -13.80252
      H1    12.85397   10.99377  -14.20867
       H    12.68297    5.88243   -7.83283
       O    12.02622    5.40954   -7.20623
      H1    12.50077    5.54629   -6.35088
       H    14.05388   12.08724  -11.66386
       O    14.31128   12.67661  -12.38024
      H1    13.80982   13.50311  -12.10801
       H    15.99922   12.46968  -12.04220
       O    16.93925   12.21270  -12.11876
      H1    17.36065   12.58846  -11.30874
       H    14.46838    9.63796   -8.22621
       O    14.88927    9.25609   -9.03002
      H1    14.28127    9.58204   -9.67798
       H    13.92689    6.39240  -16.67533
       O    14.53229    6.89574  -17.19108
      H1    15.35064    6.34438  -17.31367
       H    12.97862    3.34724  -12.96494
       O    12.78906    3.40708  -12.06403
      H1    11.86530    3.64742  -12.00272
       H    10.63438   12.06813  -10.31490
       O    10.42447   12.91809  -10.86190
      H1    10.29241   12.64916  -11.75974
       H    12.34699   10.76661  -10.85539
       O    13.16126   10.85588  -10.36212
      H1    12.87347   10.96415   -9.47413
       H    11.71708    6.40751  -15.23318
       O    12.36023    5.96631  -15.71939
      H1    12.36518    5.09051  -15.38020
       H    14.17150    8.04860  -12.93726
       O    13.25027    7.82867  -13.12060
      H1    12.82917    7.79682  -12.29922
       H     8.78782    3.90434  -14.46641
       O     8.24991    4.51287  -13.94727
      H1     8.47369    5.33640  -14.30758
       H    14.78792    8.78469  -16.24255
       O    14.99581    9.70526  -15.94660
      H1    15.43831   10.05803  -16.73862
       H     7.20108    5.83487   -9.58577
       O     7.57966    5.13150  -10.17524
      H1     6.88717    4.78498  -10.74223
       H     9.63064    9.81427   -9.60514
       O    10.40044    9.93012  -10.16275
      H1    10.86934    9.11853  -10.04150
       H    14.50005   11.46744  -15.29449
       O    14.00168   12.19067  -14.91836
      H1    14.53020   12.41339  -14.06204
       H    13.04666   12.30646   -7.79874
       O    12.59184   11.40891   -7.77604
      H1    11.66163   11.67495   -7.69829
       H     9.67271    5.51381  -18.73713
       O     9.23216    5.53978  -17.88106
      H1     9.60838    6.30952  -17.38935
       H     9.40676    8.00786   -7.58849
       O     8.89391    8.66767   -8.07668
      H1     8.08727    8.10627   -8.10320
       H    16.23325    9.14945  -11.58618
       O    15.81498    8.79717  -12.35228
      H1    16.42856    8.21458  -12.80917
       H    10.60095   11.63546  -13.58201
       O     9.75700   11.90677  -13.21296
      H1     9.39166   11.03937  -12.94729
       H    16.48608    3.34734  -14.16821
       O    16.93718    2.74187  -13.63089
      H1    17.21409    1.96643  -14.15891
       H     9.40387    5.64811   -6.22315
       O     9.28185    5.57786   -7.18502
      H1    10.19534    5.56834   -7.42552
       H    11.61524    6.79086  -10.43229
       O    12.01689    7.65854  -10.56471
      H1    12.75032    7.63206   -9.96789
       H     9.46855    7.76360  -15.10573
       O    10.10646    7.33078  -14.48792
      H1    10.56100    8.02472  -14.01135
       H    16.58354    2.43305  -11.81095
       O    16.58744    2.37605  -10.86684
      H1    16.10007    3.10567  -10.48678
       H    12.76172    2.83469  -15.76823
       O    12.37151    3.23946  -14.92364
      H1    11.47517    3.05621  -15.17368
       H    16.31358    9.99888   -9.81697
       O    17.11386   10.12460  -10.33486
      H1    16.90931   10.72061  -11.01839
       H    16.94130    6.65007   -7.35000
       O    16.77544    7.60162   -7.29435
      H1    17.39333    7.98458   -7.93913
       H    17.71996    6.51134  -15.44293
       O    17.64630    6.81583  -14.51708
      H1    17.88384    7.71508  -14.72655
       H     6.94810    6.79403  -11.95382
       O     6.57613    7.55932  -12.42490
      H1     6.00917    7.99314  -11.74912
       H    10.35018   10.46383  -16.59810
       O    11.02651    9.89170  -16.28886
      H1    11.36695   10.33535  -15.47495
       H    14.07624    5.59736  -13.57552
       O    14.61567    5.02126  -13.07516
      H1    14.07724    4.45869  -12.50619
       H    12.83954    2.17150  -10.50504
       O    13.23454    1.48607   -9.93372
      H1    13.47955    0.75640  -10.48269
       H    14.51307    7.36636   -8.57487
       O    13.96373    6.55410   -8.77354
      H1    14.51140    5.95131   -9.26025
       H     8.43079   11.46990  -14.43510
       O     7.90724   11.31350  -15.22748
      H1     7.96978   10.43183  -15.55731
       H    17.25043    9.90483  -13.90649
       O    17.45036    9.75359  -14.81999
      H1    16.52570    9.77420  -15.18656
       H    17.00774    5.37533  -10.37840
       O    16.03962    5.19916  -10.34769
      H1    15.65549    5.37516  -11.25122

