120
frame 11 | Written by MDAnalysis XYZWriter (release 2.4.3)
       H    -4.64135  -16.50431   -9.99689
       O    -5.46201  -16.50401  -10.56395
      H1    -5.54959  -17.42088  -10.85208
       H    -4.21480  -13.81376  -13.93265
       O    -4.23606  -13.80708  -13.01831
      H1    -3.58950  -14.50222  -12.74808
       H    -8.59519  -12.01001  -10.56473
       O    -8.44383  -11.47007  -11.32329
      H1    -7.51055  -11.18381  -11.15857
       H   -10.83307  -10.07514  -12.46013
       O   -11.45177  -10.27282  -13.14297
      H1   -10.99770  -10.29210  -14.02498
       H    -4.26722  -17.85668  -13.62965
       O    -4.97098  -17.20675  -13.38507
      H1    -4.66553  -16.70779  -12.60945
       H   -10.77974  -13.95889  -11.04743
       O   -10.72548  -14.48117  -10.23781
      H1   -10.55673  -15.41078  -10.54571
       H   -14.49069   -9.40176  -13.85878
       O   -13.73542   -8.78994  -13.75821
      H1   -13.05935   -9.34653  -13.34127
       H    -9.35103  -13.79794  -16.20540
       O    -9.31344  -13.03125  -15.66191
      H1    -8.72881  -13.29939  -14.91446
       H    -6.63974   -6.85551   -9.12086
       O    -7.25168   -7.52140   -9.50258
      H1    -7.94565   -7.05335  -10.01087
       H    -9.26447  -13.72667   -9.44286
       O    -8.72802  -13.08443   -9.01476
      H1    -9.18488  -12.84615   -8.18651
       H    -8.83083  -16.75323   -7.96668
       O    -8.02666  -16.72488   -8.49846
      H1    -8.12461  -16.22344   -9.38449
       H    -6.42952  -11.93652  -16.43733
       O    -5.85134  -11.66314  -15.68741
      H1    -6.40263  -11.27734  -15.00946
       H   -10.02070  -11.43202  -15.97323
       O   -10.72011  -10.72744  -15.96074
      H1   -10.29394  -10.00948  -16.42872
       H    -5.61582   -9.56103  -11.60418
       O    -5.92079   -9.94129  -10.74430
      H1    -6.55041   -9.25382  -10.46674
       H    -9.96663   -6.03415  -12.53943
       O    -9.74725   -6.23059  -11.61314
      H1   -10.68439   -6.12613  -11.26781
       H    -6.76168  -13.23865  -12.98578
       O    -7.63271  -13.43972  -13.39917
      H1    -8.22845  -13.12791  -12.70354
       H    -9.36746  -10.03830  -11.29358
       O    -9.79868   -9.22071  -11.04358
      H1    -9.34527   -8.43950  -11.44441
       H    -7.51675   -8.73608   -8.31509
       O    -7.51085   -9.40635   -7.57984
      H1    -7.05198   -8.94786   -6.86712
       H    -3.78063  -13.68147  -16.28834
       O    -4.28002  -14.11371  -15.62995
      H1    -5.13518  -13.66429  -15.72121
       H   -10.16386  -11.48103   -6.99498
       O    -9.66916  -12.27673   -6.78117
      H1   -10.39141  -12.98147   -6.86793
       H    -4.09729  -14.83273   -7.17895
       O    -4.63781  -15.66617   -7.06288
      H1    -5.55737  -15.30522   -6.84599
       H   -10.78851   -9.04041   -8.09664
       O   -10.23874   -9.46560   -7.45435
      H1    -9.35129   -9.48374   -7.75149
       H    -7.95798   -6.15636  -16.54718
       O    -8.01431   -7.07985  -16.20438
      H1    -8.04746   -6.93251  -15.28276
       H    -4.12018  -11.19810  -16.12014
       O    -3.22431  -10.90838  -15.83437
      H1    -3.15244  -10.00002  -16.07245
       H   -10.95163  -12.21246  -12.75663
       O   -10.66461  -13.14488  -12.69313
      H1   -10.82373  -13.52022  -13.58079
       H    -2.00871  -13.50181   -7.51475
       O    -2.66754  -13.99103   -7.92687
      H1    -3.19860  -13.34272   -8.42048
       H    -3.40033  -12.44015  -11.95318
       O    -3.04137  -11.57732  -11.73181
      H1    -2.07472  -11.74843  -11.92754
       H    -4.20572   -7.02077  -10.52839
       O    -3.67819   -7.52477  -11.08441
      H1    -4.13326   -7.77022  -11.89122
       H    -8.37737  -14.88324  -11.75372
       O    -7.82018  -15.37439  -11.17684
      H1    -7.05555  -15.46872  -11.71153
       H    -3.94841   -9.66002  -13.27032
       O    -4.63685   -9.01331  -13.13953
      H1    -4.92580   -8.71419  -14.02433
       H   -11.56431  -14.37414   -8.44355
       O   -11.55504  -14.42812   -7.47159
      H1   -11.09919  -15.30813   -7.19799
       H   -12.00622   -7.90746   -9.36901
       O   -12.51046   -8.64377   -8.93309
      H1   -12.46881   -9.37758   -9.54709
       H   -13.25036  -12.36858   -9.88532
       O   -13.47511  -11.40271   -9.78868
      H1   -13.64143  -11.34136   -8.83363
       H    -5.04675   -6.93314  -15.72816
       O    -5.39922   -7.78167  -15.65947
      H1    -6.30244   -7.77962  -15.95842
       H    -7.39440  -14.60240   -5.68029
       O    -6.71545  -13.99692   -6.08509
      H1    -7.08898  -13.44439   -6.76499
       H    -4.06125   -8.42784   -9.41162
       O    -4.40926   -8.70862   -8.56884
      H1    -4.96072   -9.46319   -8.88333
       H    -6.87600  -11.03566   -7.98805
       O    -6.39218  -11.83200   -8.20286
      H1    -7.08229  -12.40214   -8.51301
       H    -3.68182  -11.77459  -10.07913
       O    -3.93957  -11.91404   -9.12171
      H1    -4.87310  -11.66056   -9.19281
       H   -12.85793  -14.53086  -11.09512
       O   -13.72589  -14.02817  -11.03671
      H1   -14.22156  -14.58586  -10.44589
       H    -3.69929   -9.12585   -5.29243
       O    -3.30210   -8.41010   -5.83023
      H1    -3.79927   -8.64407   -6.67870

