120
frame 3 | Written by MDAnalysis XYZWriter (release 2.4.3)
       H    -7.12910    0.62957   11.79823
       O    -6.56815    0.00409   11.37448
      H1    -6.41189   -0.62655   12.10799
       H   -10.92461    5.51932   12.47656
       O   -11.83727    5.76561   12.68073
      H1   -11.88343    6.75770   12.66689
       H   -13.74752    3.90196   11.98823
       O   -13.56299    2.94962   12.10652
      H1   -13.10474    2.78196   12.96123
       H   -12.90737    2.79886   17.11569
       O   -12.00796    2.94714   16.74374
      H1   -11.38768    2.88828   17.52172
       H   -14.38362   -0.62067   14.68882
       O   -13.43635   -0.88598   14.65376
      H1   -13.29569   -1.74727   14.27100
       H    -8.04375   -4.66964   18.11989
       O    -8.02632   -4.37880   19.03229
      H1    -7.33357   -4.96337   19.42737
       H   -10.66404   -2.88920   15.99691
       O   -10.46858   -3.18630   16.88008
      H1   -10.87955   -4.05192   16.78354
       H    -4.58515    4.05707   16.73915
       O    -3.63934    3.82736   16.70390
      H1    -3.22637    4.36577   16.00947
       H    -8.01663   -3.67526   13.32384
       O    -7.29321   -4.00075   13.97484
      H1    -6.99278   -4.82474   13.44835
       H    -8.20959    2.33668   10.26920
       O    -8.44022    2.31295   11.21317
      H1    -9.19506    1.65269   11.35029
       H    -7.86407    2.68015   14.98576
       O    -6.95147    3.13674   15.12150
      H1    -7.00992    3.79721   14.33706
       H    -9.25261   -4.48343   12.47696
       O    -9.23460   -3.58222   12.08871
      H1    -8.50601   -3.56305   11.45154
       H    -8.16430    5.21803   12.11883
       O    -9.05490    4.79590   11.97255
      H1    -8.95325    3.89881   11.64910
       H   -12.94110    1.81562   11.04236
       O   -12.35602    1.30042   10.40343
      H1   -12.90159    0.51729   10.13196
       H   -14.64467    3.26320   18.18901
       O   -14.70535    2.43719   17.60724
      H1   -14.42889    1.74433   18.20339
       H   -13.93100    5.47738   17.00776
       O   -13.35632    6.19385   17.28500
      H1   -12.55241    6.07505   16.73358
       H   -10.65689   -0.68019   19.23190
       O   -11.32254   -0.03549   19.48897
      H1   -12.05936   -0.25193   18.88913
       H    -9.51906    8.11180   15.37530
       O    -9.25063    7.24464   15.78561
      H1   -10.03141    6.65850   15.67592
       H    -7.47848    7.25031   15.07812
       O    -6.72955    7.52596   14.48666
      H1    -6.01258    7.69270   15.10817
       H    -8.32207   -0.34045   18.28084
       O    -7.87916    0.07500   17.54720
      H1    -7.08084   -0.39512   17.31028
       H    -9.94100    1.81877   18.99988
       O    -9.86401    2.45947   18.28406
      H1    -8.95488    2.75560   18.36448
       H    -4.87097   -1.93961   12.84393
       O    -5.75010   -1.85106   13.21156
      H1    -6.15492   -2.73629   13.32185
       H    -7.96152    6.73801   17.09691
       O    -7.30416    6.70095   17.78868
      H1    -7.06305    5.79126   17.71088
       H   -14.92534    5.34750   19.30942
       O   -14.20591    4.65500   19.32652
      H1   -13.50157    4.98088   18.85291
       H    -5.44231    2.05076   14.84653
       O    -4.61124    1.63374   15.19823
      H1    -4.30508    2.29883   15.80506
       H   -12.49576   -3.88655   14.11099
       O   -11.86587   -3.21633   14.39141
      H1   -11.49693   -2.75618   13.66575
       H   -12.93679   -1.30216   16.52840
       O   -12.74466   -1.52858   17.46332
      H1   -12.02641   -2.23352   17.44743
       H    -6.49771    5.98898   13.43549
       O    -6.54162    5.13310   12.96670
      H1    -5.87440    5.23817   12.28526
       H    -9.09534   -1.55757   15.68793
       O    -9.50454   -1.24103   14.91832
      H1    -9.57273   -0.30845   14.92579
       H    -7.02904    1.48470   20.44268
       O    -6.91061    1.69296   19.46120
      H1    -6.95263    0.86248   18.96927
       H    -8.03253   -4.83965   15.57927
       O    -7.86621   -5.41501   16.28759
      H1    -7.22054   -6.10991   16.02954
       H   -10.05087    1.97981   15.04607
       O    -9.19715    1.54364   15.19684
      H1    -9.18527    1.22884   16.14467
       H    -5.64093   -1.73653   15.74394
       O    -5.56008   -1.00621   16.36213
      H1    -5.16630   -0.27544   15.88885
       H   -10.47036   -2.46235   11.70177
       O   -11.19045   -1.81732   11.62096
      H1   -10.78610   -0.99174   11.82820
       H   -11.16306    0.95436   11.53141
       O   -10.46970    0.69840   12.13187
      H1   -10.77659    0.85154   13.01819
       H    -2.59723   -1.93229   18.28476
       O    -3.47046   -2.37035   18.12449
      H1    -3.90517   -1.73913   17.56144
       H   -11.44585    4.50382   16.00716
       O   -11.31719    5.36415   15.57083
      H1   -11.71650    5.42565   14.68190
       H    -6.28818    3.44272   18.03389
       O    -6.18037    4.22202   17.43999
      H1    -6.50865    3.89379   16.59810
       H   -14.44822   -4.41000   17.03144
       O   -14.54783   -3.65747   17.63546
      H1   -13.88783   -2.98549   17.40047
       H   -12.27098    2.18745   15.10528
       O   -12.22297    1.76049   14.26254
      H1   -12.81184    1.02151   14.30919

