123
frame 2 | Written by MDAnalysis XYZWriter (release 2.4.3)
       H    -1.18637  -10.11973    0.59020
       O    -1.37850  -10.87807    0.00528
      H1    -0.86580  -11.54528    0.46294
       H     0.68629  -11.84506   -6.62348
       O     0.11390  -12.39833   -7.15642
      H1    -0.42586  -12.96335   -6.55831
       H    10.19223  -13.14905    0.37177
       O     9.24487  -12.90501    0.53747
      H1     9.14828  -12.14092   -0.01915
       H     0.22033   -7.24311   -1.06907
       O     0.65446   -7.05173   -1.89896
      H1     0.41915   -7.89741   -2.39981
       H     3.20235  -11.16543   -5.63843
       O     2.25214  -11.15505   -5.82284
      H1     1.85698  -11.65464   -5.11043
       H     2.79869  -15.18037    1.38735
       O     2.75478  -15.73137    2.15329
      H1     3.49882  -16.31855    2.10416
       H     8.39106  -14.06730   -0.30873
       O     7.89049  -14.54412   -0.95692
      H1     8.01423  -14.05254   -1.81889
       H     7.82122  -11.13227   -1.16903
       O     8.67835  -10.78843   -0.90094
      H1     9.24459  -10.94884   -1.67747
       H     6.55220  -13.92579   -5.45925
       O     5.84118  -13.64875   -4.91026
      H1     5.14676  -14.27472   -5.14652
       H     5.50863   -9.25141    2.04919
       O     5.89877  -10.04654    1.66591
      H1     6.85308   -9.89994    1.65163
       H     3.10116   -9.96822    1.39306
       O     2.94718  -10.47146    0.60111
      H1     3.00590   -9.87757   -0.16831
       H     0.04199  -13.31437   -4.39581
       O     0.86350  -12.90233   -4.16367
      H1     0.49532  -12.36320   -3.42647
       H     5.72157  -11.67377    2.28222
       O     5.89731  -12.62125    2.58160
      H1     5.68694  -13.11213    1.77934
       H     7.62596  -17.89662   -4.05808
       O     7.37160  -16.96947   -4.03749
      H1     8.10719  -16.44946   -4.36723
       H     3.92746  -13.36297   -0.78938
       O     4.05190  -13.42069    0.16329
      H1     3.59110  -12.62338    0.43960
       H     8.56108   -8.59322    1.50326
       O     8.62327   -9.59487    1.61853
      H1     8.80800   -9.92415    0.71027
       H     5.28790  -18.14422    1.62320
       O     4.80325  -17.36666    1.64056
      H1     5.57465  -16.79795    1.86874
       H     7.66917  -15.87273    1.63136
       O     6.81126  -15.37663    1.56417
      H1     6.83373  -15.07109    0.69572
       H     5.20801  -10.37465   -5.07315
       O     5.06167  -11.03031   -5.72473
      H1     5.43499  -11.84930   -5.47770
       H     2.73411  -12.06212   -8.07141
       O     2.75186  -11.77373   -8.96789
      H1     1.79290  -11.52961   -8.99736
       H     6.38508  -15.87491   -1.30692
       O     5.84811  -16.76372   -1.48658
      H1     6.22017  -17.05205   -2.30509
       H     3.95757   -7.16292   -4.40223
       O     3.01770   -6.92795   -4.54647
      H1     2.59111   -7.43524   -5.22355
       H     2.53084   -8.46825   -7.02822
       O     1.79874   -8.47317   -6.38967
      H1     1.87250   -9.32940   -5.91954
       H     2.76892   -8.48259   -1.48025
       O     2.78746   -9.36156   -1.89647
      H1     2.76841   -9.21619   -2.86033
       H    -0.81015  -15.78391   -1.17533
       O    -1.76030  -15.84644   -1.06274
      H1    -2.06561  -16.73132   -1.26897
       H     2.59531  -17.28304   -2.39052
       O     3.04206  -16.38820   -2.21720
      H1     3.94079  -16.50767   -1.99369
       H     6.06873  -10.69639   -7.20565
       O     6.62980  -10.98787   -7.94515
      H1     6.69687  -10.24234   -8.52586
       H     0.77177  -13.86989   -1.32861
       O     1.11639  -14.59566   -0.71955
      H1     1.78330  -15.12504   -1.23385
       H     3.18809  -15.18043   -3.58254
       O     3.32402  -14.71348   -4.38275
      H1     2.55405  -14.13351   -4.42902
       H     4.42822   -7.35547   -0.88805
       O     3.53459   -7.19471   -0.55659
      H1     3.33441   -6.23435   -0.67605
       H     1.62673  -11.86468    0.81875
       O     0.84130  -12.28068    1.11013
      H1     0.92543  -13.21295    0.76401
       H     1.58892  -17.42957    0.21668
       O     2.39824  -18.02412   -0.01788
      H1     3.21363  -17.46168    0.13760
       H     3.38607  -16.24474   -7.06504
       O     2.68753  -16.27709   -6.41969
      H1     3.05233  -15.78308   -5.70960
       H     4.42711  -13.38292   -3.10642
       O     4.29820  -12.67856   -2.42531
      H1     4.96063  -12.00606   -2.48932
       H     6.27455   -8.15477   -4.91034
       O     5.51249   -8.43584   -4.31560
      H1     5.78844   -8.25541   -3.37565
       H     7.00244   -8.40507   -1.56535
       O     6.07793   -8.49687   -1.60413
      H1     5.89685   -9.41395   -1.33519
       H     8.04039  -14.54962   -6.92151
       O     8.33934  -14.15298   -6.10501
      H1     8.67718  -13.22246   -6.42404
       H     0.02809  -10.08435   -2.87880
       O    -0.02968   -9.29626   -3.49556
      H1    -0.93044   -9.21926   -3.91729
       H     0.07833  -11.08320   -0.96525
       O     0.67133  -11.49561   -1.71041
      H1     1.54121  -11.13231   -1.56059
       H     8.78868  -10.99900   -5.17431
       O     8.65264  -10.97832   -4.21046
      H1     9.01198  -11.83643   -3.99649
       H     5.53150  -10.72168    0.05942
       O     5.79679  -11.05166   -0.78880
      H1     5.26250  -11.84592   -0.78641

