123
frame 8 | Written by MDAnalysis XYZWriter (release 2.4.3)
       H     8.00265    8.74767  -13.31503
       O     9.00430    8.72456  -13.19811
      H1     9.11218    8.31660  -12.29232
       H    12.88735    9.88878  -13.75606
       O    13.32887   10.29037  -14.51508
      H1    13.87551   10.95258  -14.11358
       H    12.40196   12.75464  -16.67594
       O    12.92154   13.56183  -16.68325
      H1    13.40277   13.60292  -15.88948
       H     9.23234   13.25102  -12.56734
       O     8.95810   13.83685  -13.35478
      H1     8.47013   13.22098  -13.94123
       H    13.10041   11.94591  -11.19593
       O    13.62783   12.57802  -11.67801
      H1    13.06758   13.37969  -11.63988
       H    15.28243   12.01967  -12.01691
       O    16.05084   11.72962  -12.51752
      H1    16.81192   12.21963  -12.19641
       H    13.68763    8.02463   -8.02114
       O    13.87520    8.34334   -8.91674
      H1    13.25318    9.00855   -9.19429
       H    10.51890   11.09015   -7.82664
       O    10.90364   11.87626   -7.38833
      H1    10.54947   12.64748   -7.89486
       H     9.77325   11.98664  -10.63394
       O    10.24999   12.38500  -11.41086
      H1    10.13680   11.82443  -12.21223
       H    11.64734   10.25374  -10.05306
       O    12.60788   10.40231  -10.22381
      H1    12.90899   10.77623   -9.41393
       H     9.20689   16.88568  -13.71290
       O     9.91488   16.31306  -14.15313
      H1     9.78930   15.35033  -13.92223
       H     4.17075    9.64683  -11.90810
       O     4.99035    9.50133  -11.33505
      H1     5.67648   10.07855  -11.81166
       H     7.98089    8.89291  -17.04390
       O     8.83846    9.24632  -16.95774
      H1     9.24867    9.19798  -17.81373
       H    11.95978    6.31703  -15.62249
       O    12.20527    6.13007  -16.51038
      H1    12.16883    5.14097  -16.39260
       H    13.59777    7.47064  -13.29068
       O    12.80220    7.87686  -13.05867
      H1    12.16692    7.20059  -12.81925
       H     8.29120   16.02265  -10.87028
       O     7.69790   15.43194  -11.30155
      H1     8.24615   15.07798  -12.03229
       H     5.69078   14.20019  -13.15165
       O     5.43931   13.32866  -12.79525
      H1     5.46349   13.33396  -11.83610
       H    15.24882    8.67461  -16.33994
       O    15.40618    9.30285  -15.60298
      H1    14.52405    9.53366  -15.21909
       H     8.85498   16.18987  -15.54947
       O     8.12582   16.08268  -16.20939
      H1     7.45663   15.66769  -15.73821
       H     7.63074    7.07119  -10.22346
       O     7.56145    6.75465  -11.13844
      H1     6.65439    6.55419  -11.38329
       H    10.39033    8.27164   -9.69516
       O    10.42163    8.36510  -10.63475
      H1    11.03792    7.67544  -10.89353
       H    15.47947   11.66865  -15.52458
       O    15.18705   12.33283  -14.89726
      H1    15.59067   11.95961  -14.12760
       H    11.26983   15.90923  -17.40625
       O    10.45829   15.39534  -17.55266
      H1     9.80177   16.00835  -17.13472
       H     6.11619   12.98697  -16.94556
       O     6.16308   13.40681  -17.82303
      H1     7.11630   13.48846  -17.95114
       H     9.44002   13.81854  -17.76450
       O     9.08001   12.98546  -17.82613
      H1     8.98595   12.64782  -16.93172
       H     6.78273   14.24830  -10.63780
       O     6.19354   13.60198  -10.10313
      H1     5.91724   14.17316   -9.37637
       H    13.02685   17.04784  -13.75577
       O    12.43752   16.85810  -12.98284
      H1    11.58203   16.60762  -13.47034
       H     9.69255   11.44335  -18.68463
       O     9.99121   10.67903  -19.13850
      H1    10.96845   10.80546  -19.19123
       H    15.79815    8.24319  -12.55768
       O    15.50464    7.67261  -13.30770
      H1    15.48540    8.29567  -14.08598
       H    10.82133   11.02622  -14.58966
       O    10.26494   11.08177  -13.73380
      H1     9.93052   10.21174  -13.43901
       H    10.05426    6.29360  -11.89029
       O    10.95692    5.97328  -12.00837
      H1    11.13352    5.54333  -11.19873
       H     9.40886    7.89389  -16.04639
       O     9.61110    7.12662  -15.47173
      H1     9.47435    7.52232  -14.62133
       H     7.33811   11.20346  -11.16984
       O     7.02707   11.18957  -12.11616
      H1     6.62144   12.06377  -12.28603
       H    13.84306   12.95290  -18.04648
       O    14.16243   12.66723  -18.91190
      H1    14.98476   12.19192  -18.70304
       H     5.11168   12.10005  -14.08790
       O     5.28179   11.47840  -14.81869
      H1     5.34190   10.58638  -14.52566
       H     5.61547    8.11320  -17.36814
       O     5.92317    8.78360  -16.77049
      H1     5.77124    9.57249  -17.19249
       H     7.84487   11.65211   -8.82825
       O     8.52757   11.09692   -9.23180
      H1     8.86305   10.38416   -8.66236
       H     6.17310    7.65783  -13.95768
       O     6.24933    8.57180  -13.61498
      H1     5.92263    8.54219  -12.70216
       H    11.30299   13.86005  -11.15658
       O    11.86722   14.59301  -10.86347
      H1    11.94290   15.14849  -11.68587
       H    10.69155   10.86765  -16.81231
       O    11.46652   11.34680  -16.44818
      H1    12.16172   10.75277  -16.21146
       H     8.84799   11.59633  -14.75518
       O     8.06689   12.01402  -15.15153
      H1     7.28741   11.51494  -14.90003

