123
frame 9 | Written by MDAnalysis XYZWriter (release 2.4.3)
       H     6.05434   -8.06757    2.72932
       O     5.96867   -7.81096    1.83227
      H1     5.02509   -7.95766    1.79017
       H     1.07137   -8.72225    0.60844
       O     1.33799   -8.41049   -0.28275
      H1     2.30280   -8.39198   -0.27622
       H     3.70597   -4.42809   -4.95695
       O     4.56202   -4.72316   -5.33804
      H1     4.28132   -5.54911   -5.80629
       H     9.28766  -12.94534   -1.44948
       O     8.49870  -12.83369   -2.01140
      H1     8.85452  -12.46556   -2.81294
       H     1.83933   -7.94739   -3.87066
       O     2.78650   -8.17841   -3.76164
      H1     3.22649   -7.87252   -4.52143
       H     1.94797  -11.55325   -6.41930
       O     1.00230  -11.31492   -6.19387
      H1     0.87617  -11.87041   -5.39897
       H     1.60409   -5.44941   -4.91615
       O     1.96852   -4.70122   -4.45238
      H1     2.16955   -5.13136   -3.60431
       H     8.45460  -14.12572   -3.36302
       O     8.26542  -14.82305   -4.04534
      H1     8.58155  -14.43579   -4.89198
       H     9.13407  -10.50885   -4.11929
       O     9.55383  -11.37150   -4.20071
      H1    10.02213  -11.38330   -5.03073
       H     6.81511   -6.03944   -0.02134
       O     7.41546   -5.55393   -0.60592
      H1     7.48481   -4.63592   -0.21036
       H     3.72219  -13.60520   -4.11506
       O     3.49578  -13.66156   -5.00154
      H1     2.78749  -14.32972   -5.09078
       H     4.56141  -11.06167    1.88666
       O     5.41735  -10.71883    1.51241
      H1     5.23643   -9.82652    1.23804
       H     2.60975  -11.80163    3.58136
       O     2.99086  -11.06865    3.01817
      H1     2.23670  -10.64543    2.63554
       H    -0.52237  -12.83563   -3.50403
       O     0.27716  -12.38764   -3.81067
      H1     0.46882  -11.69382   -3.14465
       H     3.74047   -4.99875   -1.43637
       O     3.39014   -5.89674   -1.33592
      H1     3.30046   -6.32931   -2.20068
       H     8.87792   -9.74708   -0.03651
       O     9.02875  -10.67199    0.29445
      H1     8.58431  -11.10229   -0.43463
       H     3.71204  -16.56454    0.09723
       O     3.78345  -15.62904    0.37634
      H1     4.08195  -15.27172   -0.47449
       H    10.11881   -7.78175    2.86881
       O     9.28776   -7.39851    2.51861
      H1     9.19004   -7.65611    1.56042
       H     7.15257  -12.88390   -0.70571
       O     6.29521  -12.59925   -0.45699
      H1     6.35095  -12.22461    0.35674
       H     4.30000  -10.66573   -6.15061
       O     3.88887  -11.45981   -6.52951
      H1     3.84346  -12.12068   -5.81346
       H     8.58902  -11.11007    1.95888
       O     8.54110  -11.62921    2.81062
      H1     9.51178  -11.85445    2.93250
       H     6.54870  -15.41681   -3.66293
       O     5.63387  -15.78898   -3.33022
      H1     5.16549  -15.03426   -2.91502
       H     8.58998   -5.67915   -5.45892
       O     9.45702   -6.12404   -5.63419
      H1     9.28356   -6.68389   -6.40412
       H     4.77449   -7.93241   -6.17138
       O     3.98034   -7.39592   -6.03515
      H1     3.23003   -8.04046   -6.34181
       H     2.02818   -8.70673   -7.28136
       O     1.64836   -8.65323   -6.38118
      H1     1.26284   -9.51626   -6.11306
       H     0.34548   -9.61338   -2.71060
       O     0.47196  -10.26651   -1.98194
      H1     0.94781   -9.81887   -1.30194
       H     6.22269   -4.45764   -1.73608
       O     5.71902   -3.75423   -2.16789
      H1     6.01700   -3.93434   -3.06109
       H     3.26926  -13.98780   -1.55146
       O     4.05385  -13.79696   -2.04972
      H1     4.63627  -13.25280   -1.45968
       H     6.36203  -11.50456   -7.95083
       O     6.96722  -10.84109   -7.79547
      H1     6.89530  -10.25549   -8.56925
       H     4.47781   -9.66038    3.68940
       O     4.90116   -9.01589    4.26467
      H1     5.69484   -9.46707    4.52424
       H     4.71737   -8.86922   -0.98811
       O     4.08306   -8.43499   -0.38233
      H1     4.06813   -7.49746   -0.64833
       H    10.52428   -9.98120    1.74011
       O    11.34202   -9.49731    1.88379
      H1    11.58221   -9.90078    2.75079
       H     9.70706   -7.69662   -0.69884
       O     8.83059   -8.05458   -0.43784
      H1     8.30538   -7.26226   -0.67905
       H     3.43506   -9.82110   -3.70668
       O     3.58136  -10.77061   -3.51756
      H1     2.84816  -10.84573   -2.90771
       H    10.48922  -11.96733    0.13017
       O    10.86053  -12.86993    0.12324
      H1    11.71616  -12.77037   -0.32711
       H     6.13625   -9.99886   -6.61287
       O     5.69815   -9.56960   -5.85716
      H1     6.38924   -9.52174   -5.22488
       H     8.32249   -8.45795   -4.01075
       O     7.84559   -9.28930   -3.82150
      H1     7.15672   -9.17442   -3.20684
       H    12.22924  -12.46987   -2.96621
       O    11.62659  -11.80870   -2.61646
      H1    10.83777  -11.81451   -3.20185
       H     6.28936   -4.68945   -4.93242
       O     7.14170   -4.74010   -4.44262
      H1     7.56471   -3.87910   -4.66878
       H    11.57981   -7.80459   -4.15515
       O    11.24775   -6.96338   -3.75815
      H1    10.46416   -6.70892   -4.29298
       H     5.95583  -10.56270   -1.33007
       O     5.75129   -9.85702   -1.99735
      H1     5.22586  -10.41420   -2.63371

