123
frame 4 | Written by MDAnalysis XYZWriter (release 2.4.3)
       H    -5.14764   12.60283   15.02320
       O    -5.22347   12.93749   15.92034
      H1    -5.60484   13.84225   16.00492
       H    -7.23431   11.00942   14.49633
       O    -7.67279   11.66876   15.07478
      H1    -7.02185   12.22309   15.53734
       H    -8.70511   15.38885   14.13181
       O    -8.14335   14.70673   13.69572
      H1    -8.78317   14.13030   13.30691
       H    -9.33185   14.20543   17.83877
       O   -10.10876   14.56454   17.43796
      H1   -10.51393   15.27758   18.02386
       H    -6.56383   17.73564   11.44049
       O    -7.23488   17.13399   11.73848
      H1    -6.77965   16.26361   11.61960
       H    -7.61958   16.54739   19.46073
       O    -6.76689   16.45216   18.98461
      H1    -6.84950   17.01447   18.22511
       H    -5.85544    9.28203   10.60685
       O    -6.32177   10.02394   10.91079
      H1    -6.39289   10.01868   11.87899
       H    -6.46996   14.79667   12.78397
       O    -5.81337   14.81999   12.11336
      H1    -5.81266   14.00493   11.55029
       H    -3.54906   13.23172   19.24083
       O    -2.61508   12.95369   19.07638
      H1    -2.83606   11.97195   19.24584
       H    -8.62669    9.79589   18.49056
       O    -8.40204   10.41112   19.15605
      H1    -8.25054    9.94914   20.03574
       H    -3.28234   11.64402   14.19226
       O    -3.97845   11.46441   13.59055
      H1    -3.61295   11.43919   12.70463
       H   -10.55735   15.63215   14.74465
       O    -9.91405   16.04753   15.29419
      H1    -9.77367   15.41228   16.01774
       H   -10.01286   11.73250   11.37755
       O   -10.40954   12.35919   11.99233
      H1   -10.92328   12.79071   11.34654
       H    -1.89257    9.84317   12.57141
       O    -2.28228    8.99438   12.81675
      H1    -2.21443    8.99979   13.78639
       H    -3.95658   18.96238   13.85577
       O    -4.86156   18.62473   13.84921
      H1    -4.91432   18.14527   13.01391
       H    -3.71085   11.72189   10.73883
       O    -3.04766   11.11817   11.15172
      H1    -3.37520   10.18483   11.16288
       H    -9.12186    8.78171   16.00529
       O    -8.77460    7.88901   15.94936
      H1    -9.37044    7.41389   15.29552
       H    -7.28281    7.57688   14.82886
       O    -6.52103    7.26208   14.31875
      H1    -5.91190    7.32737   15.10661
       H     0.07169   13.46826   18.17327
       O    -0.18399   12.91700   17.38680
      H1    -1.17937   12.86190   17.46416
       H    -0.44278   16.80992   15.31584
       O    -0.16008   17.09914   16.17738
      H1     0.17159   17.98655   16.20772
       H    -0.10371   13.65521   15.42520
       O    -0.49920   13.45176   14.57325
      H1    -0.86816   14.32432   14.27904
       H    -8.87420   10.88369   15.96219
       O    -9.60190   10.44418   16.45919
      H1    -9.60230   10.71728   17.36611
       H    -6.76516   15.20434   14.84655
       O    -6.28410   15.37155   15.69095
      H1    -5.37125   15.57433   15.45535
       H    -8.32861    7.40894   17.64383
       O    -7.72507    7.27845   18.36615
      H1    -7.14370    6.56069   18.12651
       H    -2.25870   16.83493   11.46054
       O    -1.83040   17.69495   11.60045
      H1    -2.17407   18.29529   10.87874
       H    -1.56800   16.68995   17.51999
       O    -2.46013   16.41632   17.72219
      H1    -2.37536   15.83857   18.48380
       H     0.45250   10.04475   12.43058
       O    -0.16597   10.74833   12.32953
      H1     0.05417   11.35439   13.00974
       H    -0.97473   13.53380   11.90518
       O    -0.12211   13.67644   11.45149
      H1    -0.23709   13.67296   10.47433
       H    -6.41524    9.16161   14.04087
       O    -6.35776   10.04863   13.62602
      H1    -5.43454   10.38864   13.73430
       H    -2.44071   10.35329   15.72934
       O    -2.49807    9.38212   15.73211
      H1    -1.79944    9.10061   16.29782
       H    -3.91484   15.37385   11.16261
       O    -3.21889   15.45031   10.45069
      H1    -3.77576   15.71870    9.68000
       H    -3.85234   17.48479   15.11239
       O    -3.58045   16.59467   15.30120
      H1    -3.19629   16.56658   16.17334
       H    -1.74888   12.71799   15.49025
       O    -2.46869   12.21299   15.87570
      H1    -3.12713   12.80436   16.20579
       H    -7.45990   17.14989   16.38988
       O    -7.35283   17.97808   16.93483
      H1    -6.67491   18.46088   16.52684
       H    -5.48317   12.85446    9.65240
       O    -5.38821   12.64927   10.56732
      H1    -5.69047   11.71018   10.55639
       H     0.62188    9.49679   17.26790
       O    -0.19222    9.90791   17.59443
      H1    -0.06620   10.91485   17.61225
       H    -2.28690   16.31191   14.16448
       O    -1.44642   16.02939   13.84470
      H1    -1.30300   16.64358   13.16882
       H    -8.21321   10.45589   10.43452
       O    -9.03690   10.84140   10.01030
      H1    -8.74556   11.16689    9.16713
       H    -6.67861   10.71520   18.38713
       O    -5.81334   10.57238   17.91360
      H1    -5.65525   11.37848   17.47219
       H    -5.64029    8.98210   16.95190
       O    -5.16957    8.35108   16.44767
      H1    -4.35233    8.77783   16.13022
       H    -4.21464    7.84146   17.94705
       O    -3.78707    7.82979   18.78855
      H1    -4.56488    7.88510   19.32049

