123
frame 11 | Written by MDAnalysis XYZWriter (release 2.4.3)
       H    -9.64785  -18.50085   -4.01962
       O    -9.29469  -18.13073   -4.80485
      H1    -8.45556  -18.53210   -5.04898
       H   -14.34478  -13.40602   -1.30173
       O   -14.47498  -14.34962   -1.55142
      H1   -15.44027  -14.38137   -1.47947
       H   -17.68495  -13.39645   -9.89478
       O   -17.13428  -14.07455  -10.35466
      H1   -16.46311  -14.43229   -9.79417
       H   -18.25751  -20.09899   -4.59777
       O   -17.98759  -19.17169   -4.71850
      H1   -18.90342  -18.74785   -4.90433
       H   -12.18341  -19.60756   -8.63988
       O   -12.51270  -19.40628   -7.70250
      H1   -13.40419  -19.08090   -7.85696
       H   -11.68150   -9.18264   -6.32607
       O   -12.33334   -9.12341   -5.57656
      H1   -12.74454   -8.20556   -5.62879
       H   -17.84088  -16.13043   -7.12362
       O   -16.94507  -15.86474   -6.98223
      H1   -16.55143  -16.62759   -6.54246
       H   -17.37789  -14.21578   -3.62696
       O   -17.88865  -13.63206   -3.09813
      H1   -18.24237  -14.22449   -2.44990
       H   -10.96845  -12.68948    0.32921
       O   -11.47815  -13.01201    1.12100
      H1   -10.67823  -13.09972    1.66072
       H   -10.14552  -12.65049   -1.64251
       O    -9.74865  -11.88846   -1.15661
      H1   -10.27140  -11.12176   -1.44216
       H   -15.97454  -18.71647   -5.25188
       O   -15.48406  -18.36513   -6.07407
      H1   -14.73423  -17.80328   -5.73294
       H   -14.15315  -13.06002    1.62907
       O   -14.46337  -13.70214    2.24273
      H1   -13.69112  -14.02221    2.73051
       H   -13.93187  -10.01855   -2.85682
       O   -13.07046  -10.36667   -3.15888
      H1   -12.99197  -10.16061   -4.09083
       H   -10.16386  -11.48103   -6.99498
       O    -9.66916  -12.27673   -6.78117
      H1   -10.39141  -12.98147   -6.86793
       H    -8.92735  -16.42728   -4.84754
       O    -8.79652  -15.45234   -4.79990
      H1    -9.39312  -15.10593   -4.15688
       H   -16.21671   -9.15078   -2.45026
       O   -15.49357   -9.59861   -2.00296
      H1   -15.86284  -10.50251   -1.79571
       H    -8.69713  -11.71242   -4.85053
       O    -8.25773  -10.98660   -4.38290
      H1    -7.72298  -11.36203   -3.65896
       H   -18.00571  -11.84488   -8.31924
       O   -18.71628  -12.24766   -8.74089
      H1   -19.21824  -12.57648   -7.96036
       H   -16.79760  -12.56726   -2.09718
       O   -16.09479  -12.27016   -1.48170
      H1   -16.50312  -12.08379   -0.64466
       H   -12.38478  -11.84474   -4.44215
       O   -12.11511  -12.60870   -4.98346
      H1   -12.95147  -13.16008   -4.76018
       H   -17.49577  -15.11326    0.20460
       O   -17.10390  -15.64058   -0.53782
      H1   -16.96639  -16.51422   -0.15920
       H    -9.51481   -9.51145   -4.09867
       O    -9.94842   -8.65547   -4.13693
      H1   -10.81693   -8.76951   -4.56311
       H   -16.52762  -14.00775   -6.57712
       O   -16.15247  -13.22832   -6.20468
      H1   -16.88421  -12.57625   -6.16049
       H   -14.84797  -13.55994   -4.62828
       O   -14.19685  -14.10500   -4.16366
      H1   -14.38777  -13.96419   -3.26095
       H   -14.63458  -17.07963   -1.17950
       O   -14.91321  -17.41304   -2.02915
      H1   -15.15552  -18.31357   -1.85397
       H   -18.24776  -17.63984   -1.51622
       O   -18.85730  -18.08060   -2.07235
      H1   -18.38359  -18.42375   -2.81025
       H   -11.56431  -14.37414   -8.44355
       O   -11.55504  -14.42812   -7.47159
      H1   -11.09919  -15.30813   -7.19799
       H   -17.46496   -9.74081   -7.06140
       O   -17.04915  -10.60152   -6.86887
      H1   -16.09376  -10.43793   -6.86310
       H    -8.89385  -16.68463   -0.08745
       O    -9.12449  -15.88866    0.37257
      H1    -9.90712  -15.57692   -0.03939
       H   -11.27359  -17.82101   -7.69936
       O   -10.66598  -17.19715   -7.36762
      H1   -10.25433  -17.65130   -6.63706
       H   -13.23269  -18.34875   -3.11485
       O   -12.39192  -18.29951   -3.60258
      H1   -12.51176  -17.73345   -4.32802
       H   -13.25036  -12.36858   -9.88532
       O   -13.47511  -11.40271   -9.78868
      H1   -13.64143  -11.34136   -8.83363
       H   -15.56398  -15.76469   -8.20351
       O   -15.17417  -15.70211   -9.07628
      H1   -15.33544  -16.54478   -9.50603
       H   -12.10460  -16.24255   -1.00219
       O   -11.56785  -15.96248   -1.76850
      H1   -11.94612  -16.58346   -2.39946
       H   -15.53949  -15.45861   -4.10302
       O   -16.42445  -15.95008   -3.98889
      H1   -16.11637  -16.65053   -3.42178
       H   -10.63228   -8.98504   -2.25806
       O   -11.14463   -9.37307   -1.55322
      H1   -11.82447   -9.93032   -2.03385
       H   -12.85793  -14.53086  -11.09512
       O   -13.72589  -14.02817  -11.03671
      H1   -14.22156  -14.58586  -10.44589
       H   -14.29828  -12.37516   -7.18158
       O   -13.70282  -11.59031   -7.09939
      H1   -13.03630  -11.86454   -6.42060
       H   -11.00938  -13.58227   -3.61163
       O   -10.33954  -13.79707   -2.91980
      H1   -10.69085  -14.62798   -2.47874
       H   -13.89452  -15.47628   -0.10414
       O   -13.58632  -16.29099    0.34895
      H1   -13.55023  -15.91011    1.21010
       H   -13.44080  -15.74549   -5.14112
       O   -13.09239  -16.54803   -5.59658
      H1   -12.81565  -16.25358   -6.51237

