123
frame 4 | Written by MDAnalysis XYZWriter (release 2.4.3)
       H    -9.63673  -16.04350   -8.03393
       O    -9.12613  -16.08428   -8.88751
      H1    -8.87604  -17.02096   -9.06081
       H    -9.55009  -19.12126   -6.92197
       O    -9.64425  -19.00061   -5.96825
      H1   -10.57451  -19.08318   -5.76310
       H   -12.73683  -19.47836  -17.08450
       O   -12.00989  -19.71415  -17.62316
      H1   -11.13665  -19.80031  -17.14766
       H   -18.03110  -13.19713  -10.99335
       O   -17.41046  -12.71301  -11.54716
      H1   -17.08105  -12.07343  -10.91840
       H    -9.81972  -15.14083  -15.94760
       O   -10.18206  -14.49941  -15.31773
      H1    -9.47682  -13.99165  -14.89544
       H    -6.99896  -17.52918  -14.03577
       O    -7.23051  -17.47849  -13.10520
      H1    -6.71081  -18.06448  -12.56703
       H   -11.24056  -15.27986  -11.62596
       O   -11.18844  -15.06636  -10.69307
      H1   -10.44488  -15.48501  -10.23233
       H   -14.12012  -18.27179   -8.19797
       O   -14.95450  -18.42805   -7.81508
      H1   -15.54378  -17.67664   -8.00905
       H    -8.00632  -15.80346  -12.67057
       O    -8.09398  -14.81488  -12.66513
      H1    -7.90391  -14.55926  -13.56890
       H   -10.62913  -11.53056   -9.78306
       O   -10.39641  -11.13910   -8.90508
      H1   -10.87921  -11.66784   -8.29315
       H   -12.35861  -16.16077  -13.40353
       O   -11.41789  -15.94430  -13.28676
      H1   -11.07323  -15.48512  -14.05068
       H   -17.40387  -15.80178   -7.43152
       O   -16.66721  -16.32238   -7.73525
      H1   -16.42502  -16.03159   -8.60025
       H   -10.43863  -13.48282   -6.42361
       O   -10.48588  -12.51595   -6.31236
      H1    -9.76793  -12.29469   -5.70120
       H    -8.16017  -17.94315   -5.44357
       O    -7.69953  -17.15695   -5.24249
      H1    -7.39967  -16.88470   -6.08738
       H   -14.42727  -12.04591  -12.98946
       O   -14.08778  -12.54267  -12.25116
      H1   -13.23363  -12.19301  -11.93503
       H   -14.58123  -18.64432  -15.87455
       O   -13.69517  -18.96197  -15.63759
      H1   -13.89471  -19.67659  -15.03955
       H   -18.43295  -19.27479   -7.30001
       O   -18.57028  -18.46285   -7.86494
      H1   -17.89728  -17.84517   -7.49740
       H    -9.55568  -18.88375   -9.48651
       O    -8.68023  -19.10704   -9.19656
      H1    -8.49756  -19.78970   -9.87523
       H   -19.16028  -13.99525  -13.34516
       O   -19.17367  -14.91640  -12.96370
      H1   -18.24036  -15.09935  -12.88072
       H    -5.36746  -18.69316  -10.41272
       O    -5.68868  -18.86763  -11.35204
      H1    -6.37414  -19.64245  -11.25031
       H   -14.81653  -13.81425  -16.74726
       O   -15.45953  -14.60263  -16.72571
      H1   -16.36721  -14.24813  -16.66409
       H   -16.50166  -17.56547  -16.64673
       O   -15.88348  -18.22916  -17.02622
      H1   -15.35859  -17.71448  -17.67533
       H   -10.87153  -12.13141  -12.00500
       O   -11.34401  -12.32088  -11.20691
      H1   -11.18478  -13.31456  -11.01847
       H   -15.65113  -14.37579  -13.55025
       O   -15.81817  -15.09780  -14.18639
      H1   -15.64815  -14.83792  -15.07428
       H   -19.74107  -14.99022   -7.14472
       O   -18.85227  -14.77930   -6.86450
      H1   -18.77631  -14.99868   -5.92469
       H    -9.47165  -17.21518  -16.18391
       O    -9.44086  -16.46575  -16.76238
      H1    -8.48682  -16.41235  -16.86515
       H   -12.64285  -18.78064  -10.94382
       O   -13.56333  -18.41003  -10.90576
      H1   -13.62188  -17.76744  -11.60981
       H   -19.07073  -18.75694  -10.94159
       O   -18.24201  -18.31982  -10.78349
      H1   -18.22688  -18.46068   -9.76982
       H    -6.88346  -14.00598  -10.64345
       O    -6.98354  -14.30820   -9.73970
      H1    -7.90289  -14.60278   -9.71252
       H   -10.53911  -17.59643  -13.00147
       O    -9.78532  -18.18191  -13.05318
      H1    -8.96471  -17.68059  -12.90475
       H   -11.68260  -15.24337   -6.57274
       O   -10.72651  -15.28931   -6.63967
      H1   -10.44451  -15.61141   -5.78160
       H   -15.59607  -19.26062   -4.76351
       O   -15.28983  -18.30565   -5.04462
      H1   -15.42117  -18.20019   -6.01375
       H   -14.57173  -13.25402   -7.75858
       O   -14.54567  -12.38776   -7.25351
      H1   -15.28166  -11.82930   -7.51448
       H   -18.29833  -17.26719  -15.49631
       O   -17.65960  -16.73167  -15.96092
      H1   -17.20638  -16.14170  -15.31831
       H   -18.96914  -19.15725  -15.58645
       O   -19.61142  -18.57667  -15.10133
      H1   -19.81077  -19.04269  -14.30396
       H   -13.73190  -17.49310  -14.59820
       O   -13.83764  -16.87243  -13.84339
      H1   -14.52289  -16.26891  -14.16047
       H   -15.18440  -14.93153  -10.10258
       O   -16.06303  -15.16964  -10.41927
      H1   -16.39707  -14.37563  -10.73596
       H   -12.39465  -17.71440   -2.00800
       O   -11.93249  -17.33904   -2.76191
      H1   -12.29245  -17.77318   -3.51874
       H   -15.33757  -15.83700   -3.00237
       O   -16.01249  -16.06661   -3.63815
      H1   -15.72898  -16.83332   -4.08127
       H   -12.91048  -15.29327   -9.77213
       O   -13.67594  -15.13228   -9.18368
      H1   -13.59800  -15.42465   -8.29213
       H   -14.54513  -15.87983   -5.83178
       O   -13.97539  -15.40372   -6.42397
      H1   -14.01133  -14.65395   -5.84444

