123
frame 0 | Written by MDAnalysis XYZWriter (release 2.4.3)
       H    18.18108    4.24168   -8.04821
       O    18.96182    3.74577   -7.77933
      H1    18.67435    2.96020   -7.33348
       H    16.63169    8.89924   -6.54252
       O    15.92452    9.33040   -7.02015
      H1    15.61573   10.04942   -6.43879
       H    19.53164    5.29914  -10.66819
       O    18.90454    6.01078  -10.50802
      H1    18.23467    5.95446  -11.19839
       H    12.33631    4.62743   -5.89940
       O    12.29860    4.68202   -4.97704
      H1    13.00809    5.32913   -4.71287
       H    14.60277    9.50427   -8.49874
       O    14.44540    9.65948   -9.43928
      H1    13.73577    9.07544   -9.69460
       H    14.36351    1.84676   -9.77855
       O    14.09597    1.65666   -8.85351
      H1    13.99052    0.70407   -8.98749
       H    15.48560    3.84774   -2.97947
       O    16.26935    3.58093   -3.40666
      H1    16.31152    4.13422   -4.19167
       H    18.96903    9.88504   -9.13955
       O    19.37307    9.45895   -9.86076
      H1    18.71726    9.46863  -10.56026
       H    15.81524    6.01215   -5.68596
       O    16.18257    5.85118   -4.79723
      H1    17.05764    6.21903   -4.87275
       H    15.99613    1.30719   -0.55395
       O    15.61698    1.48917   -1.39956
      H1    16.31822    1.88451   -1.97348
       H    18.62915   11.39408   -7.55237
       O    18.16824   11.41955   -8.39562
      H1    17.26366   11.70949   -8.20483
       H    14.23745   -0.59376  -10.78689
       O    13.80190   -0.97113   -9.97859
      H1    12.81664   -1.22619  -10.11840
       H    17.02652    3.46945  -11.39905
       O    16.20857    3.75527  -10.89454
      H1    16.06544    4.70153  -11.07663
       H    19.70378    1.87637   -0.33644
       O    19.10979    1.69343   -1.06309
      H1    19.47865    2.06265   -1.85862
       H    17.12464   -1.62536   -8.41173
       O    16.73664   -1.46838   -9.30461
      H1    16.18365   -2.24462   -9.50601
       H    18.30556    4.49729   -2.39316
       O    18.39017    5.30712   -1.93620
      H1    18.32891    6.03818   -2.55002
       H    16.80875    6.51052  -14.82363
       O    17.02515    5.61312  -14.57789
      H1    16.42215    4.94115  -14.87679
       H    14.81376    2.74567  -11.75617
       O    14.07547    2.08715  -11.70660
      H1    13.28080    2.57321  -11.98977
       H    10.94188    6.72102  -10.97172
       O    11.87850    6.54715  -11.23390
      H1    12.23968    6.61451  -10.33628
       H    14.61546    3.47778  -14.01319
       O    15.46826    3.17979  -14.36119
      H1    15.28276    2.53721  -15.04734
       H    17.35806    8.30791   -9.89461
       O    16.74781    8.71802  -10.56647
      H1    15.97068    9.08630   -9.98030
       H    18.86460    7.37444   -7.01975
       O    18.32886    7.85888   -6.37253
      H1    18.77710    7.56370   -5.56744
       H    11.87098    0.96101   -5.83274
       O    11.72365    1.12014   -6.78802
      H1    12.49673    1.44406   -7.19260
       H    17.64489    1.49691   -5.75223
       O    18.53886    1.83630   -5.89316
      H1    19.04910    1.19273   -5.34725
       H    19.59034    7.64292   -3.43346
       O    18.74297    7.36159   -3.80271
      H1    18.13994    8.07776   -3.57736
       H    13.34980    0.19214   -4.07555
       O    13.98076   -0.49446   -4.43939
      H1    13.38009   -1.19089   -4.65782
       H    14.48796    3.69684   -6.79066
       O    15.37038    3.51809   -6.51618
      H1    15.37506    2.59872   -6.39245
       H    16.18113    4.25828   -7.91562
       O    16.64794    4.84621   -8.47756
      H1    16.55971    4.40834   -9.32941
       H    15.83884    0.01624   -7.13534
       O    15.96808    0.58276   -6.36022
      H1    15.39180    0.14884   -5.65930
       H    18.51024    0.06611  -11.68210
       O    18.84957    0.07227  -10.77550
      H1    18.12748   -0.40119  -10.29430
       H    14.89447   -0.61382  -13.41683
       O    14.20970   -0.35278  -12.77267
      H1    14.40033    0.58002  -12.49489
       H    16.39741    7.21457  -11.77964
       O    16.35575    6.26024  -11.92817
      H1    16.62679    6.11522  -12.86368
       H    14.83265    6.39669   -3.98198
       O    13.93304    6.59904   -3.60707
      H1    14.05769    7.40087   -3.10992
       H    12.18586    4.25179   -8.76015
       O    12.67442    3.91027   -8.01227
      H1    13.17973    3.17215   -8.41375
       H    12.36329    7.59537   -7.83898
       O    12.78960    7.32529   -8.63698
      H1    13.60185    6.89505   -8.40457
       H    18.22721   -2.34944   -6.36706
       O    18.71290   -2.25242   -7.18890
      H1    18.56130   -3.18827   -7.57822
       H    16.54801    9.18931  -12.53848
       O    15.89349    9.07191  -13.25944
      H1    15.89861    9.78728  -13.92311
       H    15.20456    7.50922   -7.19375
       O    14.90135    6.56784   -7.17384
      H1    15.62492    5.95509   -7.53090
       H    15.50937    5.10935   -1.67459
       O    14.83896    4.93114   -0.99368
      H1    15.17927    4.31758   -0.28804
       H    17.47846    3.16075  -13.36452
       O    18.26066    3.09086  -12.73727
      H1    18.98711    3.36080  -13.27362
       H    19.95326   10.59907   -5.72718
       O    19.28887   11.28450   -5.91280
      H1    19.81133   12.07336   -5.81783

