123
frame 11 | Written by MDAnalysis XYZWriter (release 2.4.3)
       H     0.96935  -16.88681   -9.88350
       O     0.59153  -17.71785  -10.16430
      H1     1.10092  -18.03353  -10.88385
       H    -0.41783  -18.97415  -15.43164
       O     0.53019  -18.75632  -15.48090
      H1     0.89403  -19.63537  -15.18802
       H     8.66095  -19.97488  -17.96801
       O     8.29819  -19.92692  -17.02128
      H1     8.56361  -19.08188  -16.70819
       H     4.00160  -16.98457  -17.65368
       O     3.45680  -16.21855  -18.01153
      H1     2.49812  -16.44441  -17.89392
       H     4.59212  -12.93109  -13.65829
       O     3.70881  -12.82028  -13.20111
      H1     3.40876  -11.90765  -13.24566
       H     2.62045  -18.79435  -16.17843
       O     3.27470  -18.81448  -16.91918
      H1     4.05537  -19.16357  -16.52059
       H     3.71085  -11.56252  -17.70156
       O     3.01106  -11.15778  -18.24286
      H1     2.18277  -11.61345  -18.17846
       H    14.36462  -13.80523  -16.87109
       O    13.88304  -14.48639  -16.37042
      H1    14.05340  -15.28256  -16.81795
       H     6.42000  -17.95252   -9.85012
       O     6.09020  -17.01172   -9.97033
      H1     5.19696  -17.12736   -9.78555
       H     8.37201  -14.65604  -18.81800
       O     8.21056  -14.68475  -17.83983
      H1     8.78385  -13.90681  -17.61993
       H    11.25793  -17.14397  -15.97633
       O    11.21260  -17.56295  -16.87713
      H1    11.40261  -18.53869  -16.81033
       H    -0.95107  -14.36662  -15.62037
       O    -0.55694  -15.21371  -15.87813
      H1    -0.26785  -15.61798  -15.04283
       H     0.11079  -16.36445  -17.36564
       O     0.66194  -16.98930  -17.80101
      H1     0.93001  -17.61836  -17.09253
       H     0.41371  -17.55364  -13.88140
       O     0.40060  -16.66478  -13.45804
      H1     1.33695  -16.39992  -13.26543
       H     9.57945  -14.74551  -10.21476
       O     8.90122  -14.04494  -10.28861
      H1     8.20845  -14.38564  -10.90417
       H    13.02367  -17.26239  -17.59581
       O    13.92968  -17.00725  -17.46135
      H1    14.26771  -17.39866  -16.66358
       H    -2.50270  -18.37863  -18.58391
       O    -2.98736  -18.87324  -19.23378
      H1    -2.32376  -19.47468  -19.58364
       H    10.37938  -12.00693  -16.24571
       O    10.20663  -12.22131  -17.16199
      H1    10.81698  -12.96220  -17.29628
       H     3.71079  -19.17066  -12.12720
       O     3.12805  -18.40812  -12.10928
      H1     3.12588  -17.99980  -12.97386
       H    -0.77430  -12.97176  -18.06111
       O    -0.16579  -12.25063  -17.90945
      H1    -0.63514  -11.49628  -18.15873
       H     5.40541  -18.87874  -15.10907
       O     5.66654  -19.69415  -15.52407
      H1     6.31633  -19.61509  -16.21655
       H     7.56621  -15.80519  -12.55598
       O     6.95973  -15.24528  -12.03426
      H1     6.71203  -15.76922  -11.27277
       H     2.48172  -15.54849  -14.38023
       O     2.67652  -15.33440  -13.47188
      H1     2.96027  -14.42192  -13.60866
       H     3.05975  -17.32215  -10.61999
       O     3.46463  -17.19625   -9.75228
      H1     2.85525  -16.63788   -9.19736
       H    -2.41985  -16.20516  -16.70608
       O    -3.03264  -16.52864  -17.35863
      H1    -3.92437  -16.53412  -16.90550
       H     6.99880   -9.19418  -16.78685
       O     7.88399   -9.49988  -17.12433
      H1     7.71245   -9.50929  -18.07829
       H    10.37545  -12.94211  -14.40097
       O    11.24958  -13.30950  -14.30313
      H1    11.82603  -12.53972  -14.35504
       H     6.25719  -19.24942  -19.56042
       O     5.65000  -19.35236  -18.83490
      H1     4.79618  -19.04230  -19.17640
       H     9.05980  -17.29360  -16.77127
       O     8.46537  -17.45074  -16.05498
      H1     7.62715  -17.30242  -16.54261
       H    10.46424  -18.57241  -12.18086
       O     9.61190  -18.88047  -12.45209
      H1     9.84907  -19.32800  -13.30197
       H     7.04679  -11.38709  -17.01432
       O     6.11274  -11.52925  -17.25017
      H1     5.88920  -12.44097  -16.91170
       H    -2.50976  -19.71026  -15.88344
       O    -2.27324  -18.75316  -15.73182
      H1    -2.64950  -18.16378  -16.41589
       H    10.36602  -16.45886  -14.11877
       O    11.19819  -16.19952  -14.59234
      H1    11.08735  -15.24722  -14.81860
       H     3.58152  -13.02072   -9.99110
       O     3.86654  -13.88329  -10.31493
      H1     3.81544  -13.82124  -11.26858
       H     5.99070  -14.06206  -14.79381
       O     6.31699  -13.54529  -14.04877
      H1     6.54805  -14.22746  -13.32397
       H     5.21132  -16.52883  -13.93416
       O     5.00696  -17.16727  -14.60899
      H1     5.12014  -16.70619  -15.52177
       H     8.87598  -12.00307  -13.11560
       O     8.58129  -12.11722  -14.01652
      H1     7.68416  -12.61157  -13.94466
       H    11.33016  -15.45948  -18.01048
       O    11.05606  -14.80247  -18.62795
      H1    10.37959  -15.30114  -19.03356
       H     5.98873  -17.89300  -18.00367
       O     5.91687  -17.17418  -17.32666
      H1     5.78420  -16.32939  -17.85038
       H     6.41273  -14.37323  -17.42369
       O     5.54362  -14.40463  -17.00695
      H1     4.84976  -14.62276  -17.66822
       H     8.78533  -17.50869  -13.13337
       O     8.74201  -16.64835  -13.50219
      H1     8.46566  -16.72422  -14.47491

