123
frame 2 | Written by MDAnalysis XYZWriter (release 2.4.3)
       H    17.89621  -11.64047   15.13213
       O    17.75455  -12.36695   15.70477
      H1    16.88019  -12.13096   16.16957
       H     6.59709  -18.20144   18.10897
       O     7.43198  -18.51853   17.70136
      H1     7.72094  -17.69707   17.28123
       H     9.43274  -14.48361   14.05539
       O    10.06666  -14.89485   14.65358
      H1     9.55097  -15.41309   15.28983
       H    18.97833  -14.37968   16.87912
       O    18.41841  -15.10307   16.48045
      H1    18.73404  -15.90056   16.96125
       H    14.54830  -17.11311   14.07776
       O    14.34718  -17.48030   14.95603
      H1    13.73493  -16.83913   15.34666
       H     8.02038  -10.73865   12.40353
       O     8.06803  -10.49716   11.46162
      H1     8.42846   -9.61684   11.61955
       H    12.27413  -12.97486   15.38791
       O    11.55184  -12.98800   16.05551
      H1    10.82499  -13.25803   15.52341
       H     5.52859  -14.96727   19.42156
       O     6.03975  -15.61734   18.85830
      H1     6.13976  -15.13386   18.00950
       H    13.73121  -11.39512   14.92787
       O    13.28052  -10.55919   14.73344
      H1    12.64735  -10.85998   14.07596
       H    10.69409  -16.35684   13.89007
       O    10.86483  -17.21522   13.45179
      H1    10.93315  -17.92716   14.15926
       H    15.56817  -13.10156   17.20425
       O    15.31693  -12.36911   16.68631
      H1    15.28214  -11.67504   17.31848
       H    10.77961   -8.66524   15.85002
       O    10.42957   -8.23071   15.09991
      H1     9.60436   -7.77375   15.40469
       H    13.25732   -6.66413   15.74258
       O    12.71359   -6.01340   15.23034
      H1    12.18856   -6.58590   14.67331
       H    12.40675  -10.17433   16.16715
       O    11.93343   -9.89759   16.94709
      H1    11.83724  -10.69641   17.49269
       H    12.99703   -9.25682   18.35214
       O    13.59431   -8.92337   19.03073
      H1    13.51548   -7.96686   18.93916
       H    11.16039  -12.41676   18.94973
       O    12.02179  -12.15657   18.61334
      H1    12.05169  -12.62675   17.76010
       H    15.41771   -8.56891   16.32025
       O    14.78913   -8.44919   15.60995
      H1    14.50404   -9.39240   15.47820
       H    12.65986   -5.36421   20.04571
       O    13.03996   -6.04180   19.44457
      H1    13.93223   -5.72663   19.16702
       H     7.31211  -11.79475   19.32430
       O     7.04087  -11.74194   18.42990
      H1     7.82978  -11.54142   17.90075
       H    10.29872  -12.22875   12.66500
       O    10.93008  -11.66969   13.06463
      H1    11.65725  -11.61155   12.35028
       H     7.50290  -16.58128   15.59435
       O     8.24946  -16.50168   16.20825
      H1     8.05254  -15.69490   16.72440
       H     9.21354   -8.69848   13.38066
       O     9.00015   -8.16244   12.59480
      H1     9.87257   -7.91674   12.32638
       H     9.91193   -6.06897   17.08908
       O    10.56425   -5.42758   17.36259
      H1    11.40494   -5.50945   16.82826
       H    14.43164  -14.03240   14.51624
       O    13.68495  -13.68642   14.09378
      H1    14.11148  -13.10083   13.42449
       H    16.63398   -9.79272   18.80434
       O    16.09005   -9.54169   18.07485
      H1    15.30082   -9.11910   18.43852
       H     7.70435  -12.77096   13.62475
       O     8.17820  -13.51297   13.25809
      H1     7.54043  -14.09992   12.76335
       H    11.92057  -16.17443   17.21469
       O    12.44978  -15.79394   16.45253
      H1    11.95490  -15.02403   16.23783
       H     6.64164   -8.63184   19.35279
       O     6.74274   -8.84903   18.40656
      H1     6.78356   -9.81644   18.43008
       H    15.50776   -7.69228   14.13996
       O    15.97453   -7.23411   13.39932
      H1    16.12518   -6.33504   13.76267
       H    11.83757  -16.26136   19.12066
       O    11.53132  -17.06419   18.55655
      H1    12.24664  -17.71361   18.71431
       H    16.09610  -14.28429   19.02357
       O    15.67757  -14.62387   18.20991
      H1    14.72814  -14.68076   18.40285
       H    11.30710  -19.48568   16.63369
       O    10.90285  -18.72329   16.15105
      H1    10.54896  -18.13983   16.82739
       H    13.72270  -10.78483   12.34856
       O    13.39828  -11.60518   11.99987
      H1    13.69604  -11.70658   11.05777
       H    12.86297  -16.61199   12.98744
       O    13.64132  -16.06643   12.72525
      H1    13.45498  -15.19927   13.13706
       H     9.98879  -17.77107   19.30607
       O     9.24890  -18.15431   19.76418
      H1     8.60689  -18.35414   19.00738
       H    16.89918  -13.90111   14.81221
       O    16.16435  -14.57192   14.86837
      H1    16.37076  -15.02002   15.71332
       H     9.17976   -9.47399   16.68826
       O     8.94258  -10.40955   16.68749
      H1     9.80113  -10.80618   16.64768
       H     6.85409  -13.40961   17.61337
       O     6.76246  -14.03206   16.88165
      H1     6.37789  -13.58132   16.17870
       H     7.77720  -10.71304   14.99738
       O     7.29896  -10.93332   14.18779
      H1     6.40434  -10.51965   14.29532
       H     7.56898   -6.98395   15.92416
       O     8.29184   -7.26878   16.54404
      H1     7.84144   -7.68855   17.30628
       H    15.46625  -17.23774   16.13876
       O    15.93538  -17.13693   17.00244
      H1    15.59650  -16.33219   17.36432

