123
frame 7 | Written by MDAnalysis XYZWriter (release 2.4.3)
       H   -11.27210   10.03551    3.59003
       O   -12.20783   10.38415    3.64574
      H1   -12.31151   10.99331    2.83990
       H   -16.05118    6.36160    9.24010
       O   -15.87542    6.26370   10.19475
      H1   -16.73798    6.37602   10.73741
       H   -16.18618   12.45361   11.24917
       O   -16.50719   11.51447   11.22302
      H1   -17.24279   11.58375   11.86539
       H   -15.94910    5.09026    7.29316
       O   -15.43638    4.25701    7.28214
      H1   -14.55163    4.59894    7.45894
       H    -8.51068    8.30497    7.24000
       O    -7.72262    7.76110    7.18676
      H1    -7.94743    7.07049    7.77341
       H   -13.45439   10.02129    6.84627
       O   -12.86167    9.97203    7.60134
      H1   -12.95129    9.06156    7.87878
       H   -12.32998    7.36503   10.66658
       O   -11.70483    6.87277   10.05008
      H1   -10.87407    7.04388   10.43735
       H   -15.51834    7.98172   10.33192
       O   -15.21524    8.92151   10.17748
      H1   -15.80171    9.54669   10.59919
       H   -15.99030   10.14835    7.33990
       O   -16.83133    9.73226    7.43989
      H1   -17.65448   10.20545    7.15497
       H    -9.61633    6.14803    4.67744
       O    -9.00516    5.96751    3.86690
      H1    -8.23284    5.56579    4.25518
       H   -10.35527    4.89942    7.36800
       O   -10.32947    3.97244    7.62429
      H1    -9.42471    3.96953    8.07857
       H   -16.18661    5.47040    4.49407
       O   -16.25377    4.53112    4.30145
      H1   -16.17736    4.08499    5.17634
       H    -8.27935    9.41860    9.71517
       O    -8.71359   10.11460   10.19515
      H1    -8.54831    9.90255   11.10783
       H   -11.16861    9.42225    7.07191
       O   -10.31459    8.95441    6.89761
      H1   -10.33572    8.88704    5.92244
       H   -14.25971   11.58787   13.92287
       O   -14.53317   10.79210   13.43775
      H1   -15.01537   11.16587   12.73609
       H    -8.73721    5.46095   12.56512
       O    -9.35171    5.96008   12.00057
      H1    -9.98752    5.27879   11.68622
       H   -10.60116    7.25559    6.32193
       O   -10.64046    6.44485    5.82461
      H1   -11.56789    6.12932    5.70021
       H   -12.29356   13.48323   12.44534
       O   -12.80491   13.81389   11.68852
      H1   -13.10792   13.03200   11.20327
       H   -18.31636    7.40701    4.01336
       O   -18.80285    7.84599    4.71615
      H1   -18.10575    8.16641    5.26268
       H   -14.78282    5.45711   12.19467
       O   -14.80481    5.43494   13.15183
      H1   -13.96693    4.98941   13.38113
       H   -11.62827   14.17625    9.41457
       O   -11.57302   15.12537    9.24602
      H1   -11.18892   15.29143    8.42561
       H   -11.97993    4.05148   11.02314
       O   -11.17189    3.80494   11.51580
      H1   -11.52617    3.75344   12.42477
       H   -11.40614   11.76768    4.42927
       O   -11.04591   12.50844    4.98538
      H1   -10.42067   12.11054    5.65542
       H    -9.12997    9.81107    4.08607
       O    -9.80247    9.14151    3.89443
      H1    -9.28047    8.47635    3.42143
       H   -16.86386    7.84125    7.71656
       O   -16.89124    6.85560    7.51532
      H1   -17.91512    6.72651    7.49668
       H   -13.74118    4.82370    4.84628
       O   -13.20250    5.49507    5.34706
      H1   -13.08407    5.06558    6.15881
       H    -8.26684    6.67850   10.72977
       O    -7.83628    6.86268    9.84362
      H1    -6.90582    6.98351    9.87718
       H   -13.89495    8.72998   11.48641
       O   -13.01163    8.47429   11.70085
      H1   -13.04492    8.08813   12.59411
       H   -14.33699   13.32424    5.16037
       O   -14.50399   12.97143    6.01656
      H1   -14.69438   12.04092    5.97127
       H   -13.75511    6.98373    2.10117
       O   -14.43282    7.67820    1.93273
      H1   -15.07884    7.29879    1.28867
       H   -14.39125    6.95325    5.04626
       O   -15.20517    7.33548    4.62802
      H1   -14.91581    7.38929    3.71957
       H   -14.78007    8.94418    5.03024
       O   -14.37134    9.78472    5.34430
      H1   -13.76589    9.90623    4.61703
       H   -12.52549   14.22140    5.95143
       O   -12.51632   15.22825    5.87673
      H1   -13.28116   15.64815    6.22756
       H    -6.81372   12.75294    9.46761
       O    -6.69535   11.89689    9.94010
      H1    -7.55745   11.44466   10.08983
       H    -9.80967   11.85106    7.92911
       O    -9.41431   11.52846    7.08524
      H1    -9.61986   10.61146    7.03709
       H   -10.38928   11.28840    9.84855
       O   -10.76941   12.13410    9.52090
      H1   -11.74712   11.96419    9.40736
       H    -6.33570   10.98463    7.59034
       O    -6.70924   11.57358    6.93188
      H1    -7.67924   11.54203    6.98182
       H   -18.32182    9.81335    9.26849
       O   -19.09824    9.32320    9.43021
      H1   -18.94600    8.59655   10.09537
       H   -12.52268    5.90863    8.75945
       O   -12.98383    5.27845    8.14273
      H1   -12.64977    4.44504    8.54770
       H   -14.16454   12.35305    8.86980
       O   -13.47719   11.85698    9.32740
      H1   -13.28980   11.11070    8.73101
       H   -16.72629   12.65281    8.15898
       O   -15.87232   13.10636    8.31502
      H1   -15.44882   13.12266    7.43506

