123
frame 1 | Written by MDAnalysis XYZWriter (release 2.4.3)
       H     2.23672   18.56810   -7.73317
       O     2.44397   17.96145   -8.44707
      H1     3.29873   17.60399   -8.18049
       H     5.42979   17.67278  -13.33554
       O     4.62944   18.24172  -13.32362
      H1     4.15545   18.24027  -12.52465
       H     3.95783   13.83248  -19.95153
       O     3.21434   13.24453  -19.76485
      H1     2.84272   13.60947  -18.95460
       H    11.38745   16.58328  -16.34464
       O    12.05692   15.93826  -16.56072
      H1    11.69546   15.08602  -16.72504
       H    10.24729   15.93239  -13.54489
       O     9.80461   16.27064  -14.29346
      H1     9.43462   15.56209  -14.84031
       H    -2.72170   18.07396  -13.34424
       O    -2.71166   18.98948  -13.66614
      H1    -2.16904   19.04032  -14.49937
       H    -4.04856   19.44454  -11.66729
       O    -4.91768   19.07247  -11.59700
      H1    -5.50577   19.79265  -11.30568
       H     7.19566   18.24619  -18.12910
       O     6.80659   19.08281  -18.16342
      H1     7.59167   19.67578  -18.47565
       H     7.43783   16.21145  -13.14440
       O     6.55042   16.18160  -12.72582
      H1     6.60273   16.11990  -11.75532
       H     4.35575   16.66243  -14.97560
       O     3.89225   16.54308  -15.85384
      H1     3.29726   17.32574  -15.99264
       H    -5.87575   18.96410  -15.84903
       O    -5.88728   19.49818  -14.99301
      H1    -5.56602   18.98454  -14.25340
       H     0.04875   15.67708  -12.51798
       O     0.66962   15.86977  -13.21095
      H1     1.30238   15.18304  -13.14203
       H     5.27086   13.81023  -15.45650
       O     6.24206   13.87696  -15.52755
      H1     6.60609   13.02151  -15.25550
       H    -3.78431   15.86537  -17.88874
       O    -3.89050   14.95136  -17.51700
      H1    -4.29910   14.51614  -18.30710
       H    -2.75251   19.13757  -10.19292
       O    -2.70406   18.59444   -9.40499
      H1    -3.61440   18.69324   -9.06090
       H    -0.83316   18.68493  -15.63315
       O    -1.55932   18.20707  -16.05242
      H1    -1.42744   17.23731  -15.83941
       H    -0.35791   12.06515  -14.21449
       O    -0.10824   12.87721  -13.75652
      H1    -0.12218   13.51995  -14.42086
       H    10.33025   19.15908  -15.76348
       O    10.81874   18.60330  -15.18532
      H1    10.25749   17.86629  -14.86728
       H     5.85884   16.72186   -8.91320
       O     6.52506   16.88374   -9.61166
      H1     7.31867   16.36249   -9.46659
       H     7.51302   14.89493  -16.08184
       O     8.36884   15.10003  -16.48042
      H1     8.38571   16.03419  -16.83665
       H     0.33127   15.58353   -7.81371
       O     0.80468   15.71590   -8.66982
      H1     1.09671   16.64307   -8.74730
       H     1.92240   19.43670  -11.20841
       O     2.72948   19.27130  -10.74031
      H1     2.48843   18.69544   -9.97270
       H     1.67644   13.57908  -16.79472
       O     2.08835   14.23969  -17.35338
      H1     2.37753   14.92904  -16.78076
       H     8.84985   16.82201  -18.88716
       O     8.96943   17.31717  -18.03870
      H1     9.81961   17.73193  -18.23428
       H     1.09057   17.79117  -13.30675
       O     1.53536   18.55687  -13.56020
      H1     1.95030   18.53731  -14.42903
       H     6.17910   18.41804  -10.28401
       O     5.89948   19.22796  -10.76790
      H1     4.93614   19.44467  -10.80669
       H     6.11864   13.19785  -17.35670
       O     6.29823   12.54968  -18.06524
      H1     7.22253   12.29507  -17.93331
       H     9.40386   13.58547  -18.98080
       O     9.18007   13.11567  -18.18431
      H1     8.70704   13.93648  -17.79583
       H    -1.57332   13.03252  -18.18889
       O    -1.53222   12.89865  -17.22630
      H1    -1.81021   13.74824  -16.78399
       H     3.28557   12.93559  -16.44253
       O     3.62102   12.83322  -15.55992
      H1     3.53907   11.87590  -15.34600
       H    -3.36700   18.38448  -18.34729
       O    -3.55541   17.65656  -19.01741
      H1    -2.68881   17.22860  -19.24650
       H     1.72283   18.65080  -16.89048
       O     2.43783   18.98712  -16.32034
      H1     3.01110   19.20876  -17.11094
       H    -2.62456   15.29848  -15.98058
       O    -1.81969   15.08292  -15.51420
      H1    -2.11306   15.17553  -14.62389
       H     5.36550   10.50321  -17.43105
       O     5.83202    9.68051  -17.39594
      H1     6.16003    9.62890  -18.31489
       H     6.01505   14.05798  -12.10583
       O     5.57803   13.81149  -11.28009
      H1     4.82701   14.40719  -11.15312
       H     0.09868   17.70565  -18.90877
       O    -0.00268   18.38396  -18.20662
      H1    -0.75776   18.19868  -17.64333
       H     9.57335   18.51712  -10.79908
       O     8.71875   18.19274  -11.16707
      H1     8.47398   18.78613  -11.89846
       H     2.67060   13.73762  -13.84690
       O     2.38876   13.73771  -12.88489
      H1     1.50846   13.27407  -12.89422
       H    -2.20315   16.42437  -11.93000
       O    -2.69498   16.20449  -12.71058
      H1    -3.57611   16.34883  -12.37787
       H     0.02271   12.23126  -16.95381
       O     0.80285   11.65270  -16.94288
      H1     0.85103   11.26466  -17.87055
       H    -0.67124   15.74838   -9.82663
       O    -1.46922   16.09548  -10.21886
      H1    -1.69546   16.89174   -9.69567

