123
frame 11 | Written by MDAnalysis XYZWriter (release 2.4.3)
       H     8.24746  -17.27671   -5.32121
       O     7.72306  -18.08489   -5.39933
      H1     6.78069  -17.76008   -5.40255
       H    10.21183  -13.22533   -2.66776
       O     9.77339  -12.35818   -2.62244
      H1    10.33150  -11.72243   -3.13507
       H    12.09503  -14.94430   -6.30308
       O    12.02230  -14.97356   -5.32340
      H1    12.79167  -14.48478   -5.04924
       H    10.31562   -9.14108  -10.61118
       O    11.09579   -8.86362  -10.16837
      H1    11.63625   -8.65157  -10.90218
       H    13.17427  -18.31290   -5.87875
       O    12.30325  -18.75312   -5.89620
      H1    11.67546  -18.19267   -6.32425
       H     9.12150  -16.34895   -1.78267
       O     8.67954  -17.03085   -1.18474
      H1     8.64171  -16.56397   -0.35402
       H     8.75510  -13.04681   -4.12700
       O     8.29555  -13.89637   -4.27874
      H1     8.38320  -14.15419   -5.23898
       H     9.92084  -10.26903   -4.22330
       O    10.74680  -10.76593   -4.35210
      H1    11.04296  -10.39958   -5.20361
       H     3.67977  -14.71771   -4.42527
       O     3.47809  -14.53080   -5.37811
      H1     2.56565  -14.92438   -5.41261
       H     6.42000  -17.95252   -9.85012
       O     6.09020  -17.01172   -9.97033
      H1     5.19696  -17.12736   -9.78555
       H     5.51419  -16.37603   -6.11003
       O     5.07767  -16.94727   -5.50397
      H1     4.76533  -16.34913   -4.77936
       H    12.82973  -13.34781   -0.65943
       O    12.19313  -13.50617   -1.41409
      H1    12.12301  -14.47410   -1.59537
       H     5.20808  -13.42813   -9.02687
       O     5.72166  -12.99033   -8.34622
      H1     5.02776  -12.84100   -7.71799
       H     9.57945  -14.74551  -10.21476
       O     8.90122  -14.04494  -10.28861
      H1     8.20845  -14.38564  -10.90417
       H    14.03985  -10.98074   -8.50180
       O    14.95186  -10.78436   -8.11499
      H1    15.45053  -11.54653   -8.51431
       H     5.90172  -14.77553   -7.72515
       O     6.31052  -15.67998   -7.70729
      H1     6.28483  -16.12475   -8.57470
       H    11.39156  -18.12546  -10.17588
       O    11.96293  -17.86237  -10.93162
      H1    12.37683  -17.06798  -10.60136
       H    12.17289  -10.50863   -9.87426
       O    12.67297  -11.26279   -9.50255
      H1    12.76221  -11.91322  -10.18636
       H     9.97816  -19.52033   -8.45414
       O    10.70712  -19.01545   -8.83002
      H1    11.55118  -19.44388   -8.59336
       H     3.78576  -11.19529   -6.20154
       O     3.52353  -11.86578   -6.86049
      H1     3.43732  -12.57301   -6.21315
       H     7.03842  -14.18063   -2.95848
       O     6.55556  -14.29325   -2.08452
      H1     5.74125  -14.69382   -2.44830
       H    10.58899  -17.14856   -8.21976
       O    10.89907  -16.40695   -7.66025
      H1    10.04684  -15.91755   -7.43680
       H     8.82027  -11.09259   -8.54496
       O     9.35096  -11.87002   -8.44132
      H1     8.87931  -12.56111   -9.01849
       H    14.48911  -15.49443   -9.79540
       O    13.51990  -15.33335   -9.72272
      H1    13.39813  -14.61718   -9.07283
       H     7.56621  -15.80519  -12.55598
       O     6.95973  -15.24528  -12.03426
      H1     6.71203  -15.76922  -11.27277
       H     9.82259   -8.41376   -7.29869
       O     9.53010   -7.62834   -7.77267
      H1     9.98225   -7.59718   -8.59466
       H    13.52888  -14.18729  -11.04702
       O    13.56499  -13.28831  -11.36947
      H1    14.19004  -13.34724  -12.09105
       H    10.06110  -16.25815   -4.94115
       O     9.61272  -16.30947   -4.10477
      H1     9.03530  -15.55812   -4.09168
       H    15.04507  -12.46593   -5.16241
       O    14.54286  -13.33513   -5.16273
      H1    14.80867  -13.83469   -4.38255
       H    11.26295  -16.17934   -3.19137
       O    11.89982  -16.01603   -2.49411
      H1    11.91676  -16.92823   -2.10016
       H     9.81747  -13.03333  -11.57496
       O    10.14196  -12.19650  -11.96197
      H1    10.82594  -12.41436  -12.60914
       H     6.57599  -11.30421   -8.82401
       O     6.93555  -10.47647   -8.69495
      H1     6.80283   -9.98973   -9.50972
       H     3.58152  -13.02072   -9.99110
       O     3.86654  -13.88329  -10.31493
      H1     3.81544  -13.82124  -11.26858
       H     4.87743   -9.90788   -5.31443
       O     4.14191  -10.29294   -4.81929
      H1     3.63000   -9.52829   -4.53687
       H    11.86631   -9.60609   -7.51819
       O    11.06177   -9.93559   -7.16956
      H1    10.80450  -10.63751   -7.82812
       H     8.87598  -12.00307  -13.11560
       O     8.58129  -12.11722  -14.01652
      H1     7.68416  -12.61157  -13.94466
       H     6.46507   -9.74235   -7.29513
       O     6.20102   -9.27115   -6.46920
      H1     6.96310   -9.18216   -5.96941
       H     8.66166   -8.44605   -4.01225
       O     8.31553   -9.25520   -4.29242
      H1     7.87450   -9.62113   -3.50241
       H     7.81861  -15.15534   -7.16513
       O     8.65631  -14.85990   -6.78216
      H1     8.86716  -13.95175   -7.08759
       H    12.60178  -12.00095   -2.51890
       O    12.80080  -11.11224   -2.82384
      H1    12.05162  -10.90993   -3.42830
       H     6.90286  -10.98958   -1.79619
       O     6.83273  -10.41799   -2.50930
      H1     6.21063  -10.74065   -3.11572

