123
frame 8 | Written by MDAnalysis XYZWriter (release 2.4.3)
       H     7.74155   -8.36354  -12.41110
       O     7.31310   -9.17662  -12.09085
      H1     7.84362   -9.91408  -12.35676
       H     7.01151   -6.23868  -12.90190
       O     7.84954   -6.65277  -12.63998
      H1     8.04771   -6.44413  -11.75288
       H     8.97857   -4.50944  -15.09047
       O     8.65622   -3.61804  -14.95020
      H1     7.75374   -3.59083  -14.60969
       H     9.30990   -6.94129  -17.06738
       O     9.61790   -7.23673  -17.93941
      H1     9.49507   -6.48707  -18.54729
       H     7.15854    2.15652  -17.32001
       O     6.50066    1.49387  -17.59832
      H1     5.81852    2.11751  -18.01707
       H     3.23309   -4.38931  -17.99884
       O     3.99514   -4.89170  -17.78419
      H1     4.02859   -5.80013  -18.10978
       H     9.05324   -1.35724  -19.84643
       O     9.67843   -1.51271  -19.12753
      H1    10.30187   -2.20799  -19.36204
       H    10.11682   -0.83398  -17.57776
       O    10.54055   -0.42043  -16.81215
      H1    10.35736   -0.99092  -16.07748
       H    13.87949   -4.76523  -13.62614
       O    13.57082   -4.93815  -14.48360
      H1    13.10200   -5.78583  -14.41770
       H     5.08950   -5.31752  -16.56534
       O     5.73000   -5.72294  -15.87222
      H1     6.59734   -5.57111  -16.26163
       H    11.82059   -6.51631  -17.72601
       O    12.29348   -5.72576  -17.41527
      H1    13.22942   -6.02101  -17.41818
       H    10.06681  -10.01455  -14.38548
       O    10.24608   -9.49267  -15.20141
      H1     9.76141   -8.66250  -15.12115
       H     2.74736   -9.38766  -16.01359
       O     3.03896   -8.47051  -15.99370
      H1     3.97061   -8.47927  -15.63541
       H     4.55386    3.23435  -14.72947
       O     4.40780    2.26397  -14.64853
      H1     5.23102    1.75696  -14.74211
       H     9.72486    1.17509  -16.56812
       O     9.43883    2.02436  -16.21915
      H1     9.40292    1.82162  -15.31934
       H    13.07121   -2.59189  -17.06750
       O    12.46023   -2.07954  -17.61587
      H1    12.11406   -1.39855  -17.03248
       H    14.20673   -3.95262  -15.81824
       O    14.63158   -3.23894  -16.32975
      H1    15.33345   -3.65959  -16.88574
       H    11.43630   -2.77334  -11.63780
       O    12.10063   -3.07612  -12.25949
      H1    12.86433   -2.75565  -11.87886
       H     5.49122   -3.02872  -13.61170
       O     6.25635   -2.51985  -13.85993
      H1     5.83749   -1.69938  -14.21105
       H     3.27676   -9.06275  -18.76756
       O     2.54914   -9.55056  -19.15776
      H1     2.41829   -9.34090  -20.09737
       H     7.19463    0.53832  -14.74579
       O     6.30279    0.52451  -15.07933
      H1     6.40073    0.93817  -15.93231
       H     5.12488   -4.33887  -19.03394
       O     5.87157   -3.98075  -19.53521
      H1     5.45182   -3.24632  -19.97297
       H     5.81699   -8.59911  -14.05636
       O     5.98427   -8.22492  -14.90084
      H1     6.06159   -7.28234  -14.84047
       H     4.01427   -7.92365  -17.42228
       O     4.51982   -7.68332  -18.18879
      H1     5.38301   -7.94070  -17.92353
       H     9.57399    0.08785  -13.74330
       O     8.93694    0.78564  -13.62154
      H1     8.85688    1.14597  -12.75807
       H     6.76753   -8.72973  -16.70863
       O     7.18562   -8.77917  -17.60052
      H1     8.09842   -8.62396  -17.43063
       H    13.46068    0.60264  -19.66828
       O    12.72372    0.55706  -19.05299
      H1    12.72035   -0.42161  -18.83337
       H    11.01115   -1.49905  -13.68553
       O    10.15157   -1.38770  -14.18282
      H1     9.66488   -2.17964  -14.31929
       H    12.49554   -7.10067  -13.19294
       O    12.05779   -7.20046  -14.09949
      H1    12.48339   -8.00037  -14.51313
       H     4.81256   -5.84316  -12.83005
       O     5.38238   -5.18718  -13.23986
      H1     5.46585   -5.26524  -14.18578
       H     1.80850   -4.59248  -19.20570
       O     1.38871   -4.20168  -18.41846
      H1     0.43567   -4.46418  -18.43889
       H    10.13883   -6.91018  -14.80625
       O     9.20608   -6.82917  -15.04566
      H1     8.77686   -6.74492  -14.15151
       H     7.51634  -10.58293  -18.04958
       O     7.64508  -11.44020  -18.53270
      H1     6.82957  -11.98835  -18.38306
       H     3.24322    1.72222  -15.66332
       O     2.66580    1.23171  -16.26632
      H1     3.19256    0.69067  -16.84835
       H     1.57151   -4.28668  -15.42491
       O     0.68898   -4.57735  -15.68679
      H1     0.20572   -3.96423  -16.24615
       H     6.70958   -1.42482  -11.13576
       O     7.16611   -2.24347  -11.29147
      H1     6.78163   -2.37179  -12.21157
       H    11.05801   -9.96418  -16.90803
       O    11.37118  -10.40001  -17.70076
      H1    11.28228  -11.42100  -17.51114
       H     2.81738   -1.69907  -15.28610
       O     3.45716   -2.38321  -15.02670
      H1     3.41386   -2.37448  -14.01483
       H    10.72466   -4.09100  -19.55807
       O    11.42710   -3.49882  -19.78814
      H1    11.76064   -3.09519  -18.93204
       H     8.13690   -3.32386  -17.17359
       O     7.91036   -4.00835  -17.79785
      H1     7.13732   -3.67009  -18.25663
       H     4.20888   -1.45023  -16.52377
       O     4.18135   -1.01794  -17.39221
      H1     5.05382   -0.92266  -17.71638

