123
frame 2 | Written by MDAnalysis XYZWriter (release 2.4.3)
       H     9.02771    4.61482   -8.48168
       O     9.84429    4.70386   -7.95943
      H1     9.65715    4.41739   -7.05123
       H     9.28825    8.42610  -12.14974
       O     8.74887    8.84244  -11.44278
      H1     9.11515    8.61871  -10.52482
       H    16.01230    8.38782   -7.00148
       O    15.98260    9.30293   -7.34758
      H1    15.33205    9.76127   -6.81579
       H    12.46930    3.86095   -6.54301
       O    12.36027    3.92187   -5.55530
      H1    13.18715    4.43177   -5.30425
       H    15.06432    9.91818   -4.10978
       O    15.59321   10.73480   -4.24773
      H1    15.68773   11.12757   -3.37842
       H    14.70298   10.24145   -9.44981
       O    14.70960    9.42948   -9.98573
      H1    14.15504    8.85809   -9.44875
       H    13.36327   12.36100   -9.42122
       O    14.07161   12.19275   -8.83098
      H1    14.78235   12.78167   -9.09516
       H     7.08584   13.66042   -6.37832
       O     7.69384   13.31681   -5.65111
      H1     7.54926   12.35808   -5.58664
       H     8.02536   10.30481   -5.56361
       O     7.38807   10.55150   -4.88453
      H1     6.63312    9.99116   -5.01677
       H    11.48837    8.15843   -1.34906
       O    11.61165    9.04153   -0.99035
      H1    10.86767    9.19442   -0.39160
       H    10.45320    2.99040   -2.33878
       O    11.09677    3.25650   -1.71211
      H1    11.79644    3.69704   -2.13218
       H     8.26072    9.14282   -1.73823
       O     7.46826    9.22681   -2.27318
      H1     7.64576    9.68908   -3.18059
       H    15.36160    4.53936   -5.98170
       O    15.85406    5.05581   -5.33582
      H1    16.50655    5.67271   -5.73915
       H    11.91181   10.78230  -10.97252
       O    11.92383   11.56619  -10.34027
      H1    11.61248   11.08481   -9.48552
       H    12.44156    8.95387  -11.79363
       O    11.54373    9.36837  -11.90401
      H1    10.96787    9.07148  -11.19778
       H    12.80263   10.85697   -3.18793
       O    12.65357    9.90507   -3.39885
      H1    12.07689    9.67994   -2.70865
       H     6.94986    5.74171   -8.97469
       O     7.28973    5.04797   -9.54178
      H1     6.52690    4.69939   -9.95985
       H     9.53767    8.40557   -8.36097
       O     9.91993    7.98241   -9.15903
      H1     9.57042    7.10321   -9.13595
       H    11.60561    9.85559   -7.40599
       O    11.12047   10.29054   -8.10652
      H1    10.62395   10.99066   -7.67657
       H     9.50454   12.53073   -6.21923
       O    10.35041   12.39307   -6.63655
      H1    11.02660   12.73662   -6.00748
       H    12.94499    2.25477   -4.64463
       O    12.69797    1.37348   -4.23908
      H1    13.31456    1.43327   -3.47648
       H     9.34465    8.74054   -6.40762
       O     8.59283    9.02269   -6.93592
      H1     8.00267    8.23132   -6.99896
       H    14.04314    7.32493  -11.41808
       O    14.27727    7.85239  -12.19848
      H1    14.82393    8.55992  -11.77656
       H    11.97232    5.91832   -1.90819
       O    11.14953    6.43222   -2.07197
      H1    11.44851    6.75755   -2.93341
       H     9.51961    4.81105   -4.53278
       O     9.99533    4.96947   -5.38167
      H1    10.89891    4.53478   -5.30465
       H     5.83547    6.90004   -7.33931
       O     6.74856    7.05434   -7.67883
      H1     6.69447    7.98809   -7.97010
       H    10.78836    6.41800  -10.96066
       O    11.50884    5.83935  -10.60880
      H1    11.94169    6.43797  -10.02156
       H    16.16009    8.72137  -10.21861
       O    16.92592    8.30321  -10.60853
      H1    16.90611    8.18685  -11.55858
       H    15.01935   11.80811   -5.47720
       O    14.94328   12.53918   -6.10187
      H1    14.59970   12.16499   -6.94745
       H    12.76467    9.56547   -5.11610
       O    13.37707    9.35052   -5.80995
      H1    13.67756    8.47716   -5.64208
       H     7.34431    6.07129   -2.78181
       O     6.65376    6.58588   -2.41642
      H1     7.09968    7.42463   -2.41640
       H    14.21087    3.29739   -7.81950
       O    15.01804    3.44851   -7.26635
      H1    15.26834    2.48910   -7.06156
       H    14.11132    9.18533   -2.57924
       O    14.75867    8.49100   -2.61391
      H1    14.64000    8.06665   -1.73478
       H    14.89962    6.35959   -4.68035
       O    13.98531    6.74469   -4.58667
      H1    14.12943    7.45700   -3.94972
       H    11.52940    3.81877   -8.25405
       O    12.35673    3.36894   -8.15672
      H1    12.48738    2.66200   -8.82480
       H    11.87683    8.16625   -8.65320
       O    12.65328    7.67897   -8.96729
      H1    13.20203    7.39581   -8.18902
       H     8.68650    1.84133   -5.73857
       O     8.43543    2.48725   -5.10920
      H1     8.83597    3.30306   -5.47866
       H    16.06987    6.94101   -8.91288
       O    15.25626    6.55269   -8.58561
      H1    15.27804    5.69086   -8.88661
       H    10.49427    6.84174   -5.54777
       O    10.98101    7.65025   -5.76829
      H1    11.26181    7.64706   -6.73399
       H     9.57226    5.17622   -2.57651
       O     8.85572    4.64888   -3.00261
      H1     8.21145    4.70678   -2.31097
       H    13.15309   12.94414   -5.04977
       O    12.44508   13.58728   -5.06173
      H1    12.09442   13.69884   -4.13472

