123
frame 6 | Written by MDAnalysis XYZWriter (release 2.4.3)
       H     0.71270   17.40825  -10.46742
       O     1.47528   17.20107  -11.06401
      H1     2.18411   16.76454  -10.51261
       H    -1.02201   16.24016   -3.72080
       O    -1.75929   15.82172   -3.23098
      H1    -1.88894   16.48217   -2.55036
       H     1.25205   15.92283   -1.61458
       O     0.44105   15.57624   -1.15518
      H1    -0.05069   15.08455   -1.80874
       H     3.02986   11.88771   -6.30113
       O     3.94756   12.06787   -6.47967
      H1     4.11436   12.91955   -6.98108
       H     2.74616   18.82950   -4.05679
       O     2.19898   18.88088   -3.21667
      H1     1.65696   19.66747   -3.33139
       H     2.36754   19.55163    0.00479
       O     2.13456   19.07508    0.82441
      H1     1.23508   18.77883    0.59328
       H     7.72764   11.65022   -5.58079
       O     8.35891   12.39401   -5.40802
      H1     7.88890   13.12212   -5.02037
       H    -1.20658   18.96688  -11.00830
       O    -1.18788   19.20985  -10.04709
      H1    -2.11858   19.29000   -9.82781
       H    -0.05534   17.24904   -5.57014
       O     0.44033   16.99369   -4.78985
      H1     0.89054   17.85677   -4.60762
       H     9.24069   15.80907   -8.89072
       O     8.63409   16.37996   -9.40919
      H1     9.12511   17.20156   -9.54669
       H     7.10315   18.05759   -3.73998
       O     7.11858   17.21209   -3.40495
      H1     7.19424   17.39068   -2.45380
       H     5.54541   16.50128  -10.20487
       O     5.66609   16.03455  -11.04850
      H1     6.62843   15.88828  -11.15009
       H     2.49633   16.90180   -2.78899
       O     2.54587   15.92392   -2.75462
      H1     3.26198   15.71501   -2.07960
       H     0.95539   14.63585   -7.21769
       O     0.33753   14.30695   -7.87041
      H1     0.62642   13.39335   -7.97853
       H     4.08307   17.84851  -12.36660
       O     3.52313   18.63017  -12.19703
      H1     2.74463   18.22332  -11.83637
       H     1.12327   12.31880   -4.64899
       O     1.36134   12.26357   -5.56722
      H1     0.63172   11.95986   -6.09327
       H     3.13699   16.44329   -8.36229
       O     3.26914   15.83528   -9.12216
      H1     3.72204   14.96543   -8.87539
       H     6.52202   15.83016    0.61086
       O     6.92989   15.46909   -0.19303
      H1     7.89321   15.54497   -0.10148
       H     6.06244   18.11304   -8.44882
       O     6.00497   17.16512   -8.48681
      H1     6.93961   16.88876   -8.65552
       H     3.82488   18.60022   -0.70640
       O     3.95885   19.43520   -1.18256
      H1     3.58472   19.21513   -2.08025
       H     4.29569   11.65502   -4.00000
       O     4.51801   10.76811   -3.68851
      H1     3.61929   10.55037   -3.34824
       H     5.28903   14.36957  -10.82272
       O     5.33149   13.39506  -10.58839
      H1     4.43723   13.21891  -10.29642
       H     6.65055   13.99544   -3.81371
       O     7.40778   14.54758   -3.83093
      H1     7.22702   15.46433   -3.76237
       H    10.28884   16.18446   -2.34766
       O    10.38986   17.08249   -2.02783
      H1     9.55937   17.16533   -1.50643
       H    10.46183   15.20294   -4.11378
       O    10.20846   14.64344   -3.35244
      H1     9.20498   14.68082   -3.21886
       H     6.38819    9.72349   -6.42128
       O     6.36358   10.68258   -6.48463
      H1     5.36187   10.89457   -6.40769
       H     4.08240   17.84872   -5.43505
       O     4.42989   18.39891   -4.70241
      H1     4.45484   17.76694   -3.96253
       H     1.81746   12.94753  -10.77079
       O     2.42559   13.23785  -10.08274
      H1     2.17896   14.12933   -9.84862
       H     2.11269   17.70542   -7.42168
       O     3.06076   17.88683   -7.24753
      H1     3.15332   18.79160   -7.57624
       H    10.21207   15.92505   -6.06655
       O    10.69137   16.32463   -5.32810
      H1    10.19016   17.14936   -5.13927
       H     4.18218   14.66557   -4.20601
       O     4.56348   13.79567   -4.40178
      H1     4.18034   13.52975   -5.25748
       H     7.30798   18.54760   -0.22970
       O     7.71934   18.50719   -1.10190
      H1     7.77200   19.47445   -1.22753
       H     4.92014   15.34654   -7.98893
       O     5.02137   14.38689   -7.72292
      H1     5.81824   14.10666   -8.14167
       H     1.64161   15.74466   -5.40497
       O     2.06860   15.02756   -5.96608
      H1     1.71298   14.16196   -5.67862
       H    -2.77078   19.34199   -5.40673
       O    -2.39812   18.54925   -5.83555
      H1    -2.89968   17.83409   -5.41775
       H     6.64695   12.46062   -9.48731
       O     7.20454   12.31269   -8.69998
      H1     6.76695   11.74202   -8.03888
       H    -2.43895   13.73536   -6.31490
       O    -2.16573   13.88405   -7.26344
      H1    -1.20649   14.06102   -7.19279
       H     1.59732   12.22324   -2.35534
       O     0.80999   12.78092   -2.55648
      H1     0.07444   12.23783   -2.22331
       H     3.82431   14.77568    0.24762
       O     4.04072   14.60465   -0.68589
      H1     4.95016   14.91633   -0.70749
       H    -2.44163   15.76130   -7.98189
       O    -2.17920   16.51447   -8.53584
      H1    -2.62310   17.29568   -8.20000
       H     0.50346   16.21244   -7.95479
       O     0.61334   17.15449   -8.04187
      H1    -0.27106   17.51368   -8.29376

