123
frame 7 | Written by MDAnalysis XYZWriter (release 2.4.3)
       H    -1.64264    4.31515    0.48514
       O    -1.08618    3.75755   -0.06478
      H1    -1.04663    2.92021    0.36711
       H     1.96854    3.14441    3.92355
       O     1.79074    3.70648    4.70708
      H1     2.53818    4.24743    4.80918
       H     7.39650    3.75842    3.85207
       O     7.73368    2.86008    3.86845
      H1     7.18301    2.47948    4.58589
       H     2.14093    3.55865    9.20895
       O     2.66623    4.17729    9.75626
      H1     3.51298    3.64946    9.94077
       H    -0.27056    5.48345    4.50976
       O     0.15427    5.92347    5.29249
      H1     1.06096    5.60684    5.32535
       H     3.10470    4.92642    0.94067
       O     3.41137    3.94409    0.87730
      H1     2.67073    3.52874    0.44102
       H     1.41691    1.19224   -0.67672
       O     1.82279    1.86694   -0.08301
      H1     2.73047    1.51398   -0.09495
       H     2.95355    6.46554    6.73454
       O     3.35191    6.14131    5.93835
      H1     4.18697    5.70198    6.23941
       H     4.60781   -0.80342    5.80516
       O     3.78366   -0.22613    5.76600
      H1     4.01650    0.60485    6.25618
       H     0.26175   -2.20663    2.74310
       O     1.00656   -2.26154    3.41217
      H1     0.78508   -1.65393    4.10640
       H    -1.63605    4.54132    9.50885
       O    -1.94223    4.31088    8.67589
      H1    -2.87402    4.04342    8.76236
       H    -2.39967    6.73206    0.90637
       O    -2.58352    5.84789    1.21669
      H1    -1.96743    5.68522    1.96052
       H     6.31448    5.55134    5.19781
       O     5.80770    5.01205    5.86157
      H1     6.14526    5.40644    6.66866
       H    -2.46405    1.81716    3.89930
       O    -3.43607    1.88180    3.96656
      H1    -3.74577    1.53176    3.11859
       H     1.60382    6.40898    0.95919
       O     2.54204    6.55599    0.72168
      H1     2.81729    7.22484    1.35633
       H     1.57106    9.37035    5.36951
       O     2.15034    9.45779    6.13466
      H1     2.15570   10.39132    6.34755
       H     0.31487    5.33687   10.11742
       O    -0.37235    5.15938   10.74683
      H1    -0.40763    5.96753   11.29270
       H     3.42173   -0.85943    3.85932
       O     3.39111   -0.62754    2.94207
      H1     2.49997   -0.97755    2.72509
       H     6.49640    0.54933    5.74688
       O     6.72241    1.46698    6.04411
      H1     7.24342    1.23876    6.80869
       H     7.67888    6.71976    4.28584
       O     7.17538    6.18370    3.65706
      H1     7.87139    6.03359    2.89978
       H    -0.97622    3.83901    3.62211
       O    -1.43068    4.62934    3.49727
      H1    -2.33280    4.53812    3.93654
       H     7.75510    1.39486    1.13981
       O     6.91287    1.53499    1.64122
      H1     7.25795    1.94980    2.45410
       H     3.19309    8.27035    2.96994
       O     2.56286    8.64620    2.35136
      H1     2.60298    9.59669    2.43482
       H     6.89309    6.86479    8.61004
       O     6.49920    5.99269    8.41933
      H1     5.65395    6.10527    8.87677
       H    -1.95320    5.73680    7.80209
       O    -1.96641    6.61259    7.37053
      H1    -1.33533    6.50024    6.64371
       H     0.87738   -0.70148    6.39119
       O     0.19307   -0.68247    5.68135
      H1    -0.20128    0.17388    5.49925
       H     1.11757    8.36720    9.15238
       O     0.84244    8.90751    9.93901
      H1     1.04846    8.50049   10.77607
       H     6.37727   10.14852    3.49832
       O     6.56382    9.55174    4.26026
      H1     5.95140    8.85290    4.20506
       H     2.85411   -0.85062    7.19483
       O     2.04452   -1.12577    7.63693
      H1     2.26667   -1.01346    8.56075
       H    -1.14610    3.60603    7.47534
       O    -0.48471    3.43697    6.72151
      H1    -0.38812    4.25905    6.27222
       H     0.91482    2.54749    7.31276
       O     1.58611    2.25509    7.93836
      H1     2.49757    2.35059    7.54958
       H     4.36371    4.33008   -0.54862
       O     4.60632    4.69966   -1.42716
      H1     4.22850    5.60730   -1.34526
       H     0.24819    0.23032    9.78079
       O     1.04617    0.83927    9.97911
      H1     1.34956    1.17193    9.04935
       H     2.93494    7.44733    8.65944
       O     2.10416    7.49028    8.21030
      H1     2.29255    8.22916    7.59162
       H     0.75864    8.03729    2.69548
       O    -0.10055    7.66710    3.03266
      H1     0.14323    7.25708    3.89362
       H     3.57189    5.82305    9.84899
       O     4.15936    6.56038    9.70957
      H1     4.22903    7.04032   10.53835
       H    -0.28693    2.41749    5.03111
       O    -0.71829    1.91553    4.33257
      H1     0.01976    1.71677    3.73091
       H     1.75458    1.87543    2.03501
       O     1.69487    1.45842    2.90396
      H1     2.53102    0.89183    2.96262
       H     4.94286    1.24377    7.88579
       O     4.34028    1.80422    7.30818
      H1     5.09386    1.97174    6.65921
       H     5.04378    0.93120    1.08497
       O     4.36742    0.54129    0.53162
      H1     4.07895   -0.14441    1.13334
       H     4.22487    7.12356    4.61725
       O     4.61805    7.52311    3.83809
      H1     5.37810    6.98675    3.66991

