123
frame 11 | Written by MDAnalysis XYZWriter (release 2.4.3)
       H    -2.86640    4.46842   11.37567
       O    -3.44940    3.68350   11.29839
      H1    -4.16864    3.84532   11.92134
       H    -4.05309   -3.22588   11.65053
       O    -4.29555   -2.42732   12.11349
      H1    -3.43486   -1.90233   12.10177
       H     1.90730    3.50870   10.07441
       O     2.43263    3.93043   10.74382
      H1     2.30853    3.39041   11.50325
       H     2.98531   -1.84106   11.17108
       O     3.92193   -1.75170   11.47126
      H1     4.38960   -1.28515   10.77363
       H    -0.48304    3.30467   13.35976
       O    -0.98894    3.33768   14.18395
      H1    -0.32054    2.98204   14.81410
       H    -4.77116   -1.80491    7.09988
       O    -4.22329   -1.42752    6.37027
      H1    -3.50870   -0.97867    6.87386
       H     2.61480    5.78001    7.66321
       O     2.84109    4.99962    7.12555
      H1     3.71767    4.68047    7.25627
       H    -0.82725    3.76976    9.67021
       O    -1.37334    3.59056    8.85944
      H1    -2.12823    3.10819    9.32062
       H    -1.87320    3.09232    5.92880
       O    -2.54925    3.13969    5.27613
      H1    -2.27239    2.83200    4.42317
       H    -1.66926   -0.30665   12.60127
       O    -2.53545   -0.52318   13.00054
      H1    -2.85850    0.29144   13.32172
       H     1.90808    5.76888   13.70408
       O     2.72027    5.39494   14.10582
      H1     2.64016    5.78890   14.96389
       H    -1.08124   -4.67678    7.76638
       O    -1.31250   -3.77957    7.95903
      H1    -0.66896   -3.22448    7.49111
       H    -2.20808    6.51409   10.77962
       O    -2.15745    5.94748   11.61215
      H1    -2.83413    6.34725   12.24691
       H    -4.58104    5.83569    9.23500
       O    -4.79136    6.51617    9.91863
      H1    -5.49842    7.07824    9.57049
       H     0.72259    1.68017   16.60343
       O     0.67319    2.59653   16.24778
      H1     0.12897    3.08981   16.89595
       H     1.97834   -1.13578    8.96351
       O     2.01548   -0.64037    9.77907
      H1     1.85858    0.26372    9.60558
       H    -0.57980   -3.50636   12.22551
       O     0.39223   -3.36990   12.38529
      H1     0.44371   -3.52399   13.35911
       H    -1.66166   -1.49506   14.53568
       O    -2.06580   -1.93938   15.29280
      H1    -3.05964   -2.04774   15.20397
       H    -1.30490    5.66022    8.96257
       O    -1.57481    6.55914    8.92375
      H1    -0.79468    6.99530    8.59221
       H     1.38004   -0.19057   15.60521
       O     1.02714   -0.07236   16.49930
      H1     1.50295   -0.66019   17.11234
       H    -3.22078   -1.57867   10.01516
       O    -2.30733   -1.42254    9.78284
      H1    -2.01945   -2.15136    9.21507
       H    -5.10642    4.16095    7.22561
       O    -5.31420    4.95694    7.70473
      H1    -5.38417    5.63980    7.02691
       H     1.43596   -1.95291    7.06192
       O     0.54858   -2.03469    6.75233
      H1     0.39419   -1.26787    6.14537
       H    -5.66354   -2.73584    9.25128
       O    -5.05685   -2.11034    8.91635
      H1    -5.36151   -1.25279    9.15976
       H     1.48902    7.39027   10.26812
       O     1.16468    7.79586   11.04533
      H1     0.71985    7.14941   11.61098
       H    -2.62875    0.84526    7.40183
       O    -2.10825    0.01488    7.35862
      H1    -2.23718   -0.38861    8.24068
       H     3.37366   -1.04159    7.72115
       O     3.04953   -1.93767    7.74271
      H1     3.69658   -2.36335    8.33149
       H    -0.48647    6.18478   12.73904
       O     0.26610    6.28788   13.30450
      H1    -0.05310    6.82646   14.12498
       H    -0.49115    2.70133    7.52275
       O    -0.39705    2.28161    6.65436
      H1     0.36323    2.70567    6.23865
       H     0.99250    2.02441    8.00187
       O     1.59720    1.96525    8.75607
      H1     2.41595    1.87710    8.30621
       H    -0.86652   -0.88327   10.87101
       O    -0.25347   -0.25918   11.40428
      H1     0.54293   -0.41098   10.91365
       H     0.89622    0.25967   13.07193
       O     1.56778    0.38822   13.76246
      H1     2.02750    1.23437   13.56062
       H     3.61614    5.34651   10.37832
       O     4.25916    6.09186   10.34178
      H1     4.43774    6.27691   11.27113
       H    -0.12748    0.70838    5.76532
       O     0.39277    0.26502    5.13617
      H1     0.96608    0.84908    4.64721
       H    -2.52931    2.29712   14.32492
       O    -3.19818    1.58551   14.38122
      H1    -3.11104    1.23643   15.33262
       H    -6.84869   -0.02686    9.15424
       O    -6.19288    0.34050    9.71254
      H1    -6.49793    0.29415   10.63204
       H     4.75478    0.46779    8.62153
       O     4.10156    0.74798    7.92991
      H1     4.38353    1.54297    7.52782
       H     3.82779    2.58621   12.99470
       O     2.87168    2.73646   13.12697
      H1     2.75485    3.52411   13.67486
       H    -4.99012    2.37648   14.40992
       O    -5.75474    2.72900   13.87976
      H1    -6.32733    3.21319   14.53237
       H    -1.83433    2.75361   11.53150
       O    -0.88079    2.67961   11.33070
      H1    -0.79134    1.83451   10.88844
       H    -4.08203    2.62407   10.02066
       O    -4.10048    2.31288    9.11115
      H1    -4.71013    1.51159    9.11365

