123
frame 6 | Written by MDAnalysis XYZWriter (release 2.4.3)
       H    16.91880   -1.69760   12.23030
       O    16.79679   -2.22382   13.06648
      H1    16.85086   -1.55373   13.71101
       H    11.77699   -5.79963   10.02372
       O    10.95431   -5.77837   10.53829
      H1    10.63234   -4.87438   10.64859
       H    13.31374   -5.96390    3.97071
       O    13.73434   -5.90789    4.79793
      H1    14.59716   -6.39589    4.67065
       H    17.87357   -4.16978   11.71367
       O    18.56579   -3.81267   11.16947
      H1    18.93761   -3.08648   11.70260
       H    17.70077    0.06453   15.31393
       O    17.07767   -0.66122   15.32735
      H1    16.98839   -0.96492   16.20789
       H    13.57818   -6.13211   10.27213
       O    13.22567   -6.10719    9.36386
      H1    13.44253   -5.29163    8.88954
       H    11.31968   -2.55688    6.39665
       O    11.52042   -2.35127    7.38616
      H1    12.25967   -1.78194    7.35247
       H    19.84375   -4.19734    6.79605
       O    19.32296   -3.33573    6.68805
      H1    18.53386   -3.49332    7.23986
       H    14.56802   -1.28669    8.17116
       O    15.05306   -1.57552    8.96772
      H1    15.65363   -2.26696    8.55941
       H    13.25487   -1.77425   13.13417
       O    12.92437   -0.89802   13.41255
      H1    12.06257   -0.92197   12.99746
       H    17.25614   -7.66622    3.30718
       O    16.32997   -7.89049    3.61533
      H1    16.36892   -8.20213    4.51616
       H    14.23868   -4.14332    4.43364
       O    14.50575   -3.21383    4.63051
      H1    15.43548   -3.25820    4.33031
       H    13.76576   -7.76216    8.81401
       O    14.06397   -8.72214    8.91656
      H1    13.53593   -9.21939    8.30233
       H    19.63923    2.70868    9.74423
       O    19.77451    3.42740    9.08164
      H1    19.41814    3.08740    8.19372
       H    17.10073   -1.67926    5.13193
       O    17.48314   -2.48183    4.75079
      H1    18.16412   -2.74655    5.40333
       H    13.42170    0.27818    7.50749
       O    13.62303   -0.45439    6.87940
      H1    14.33657   -0.13405    6.31970
       H    16.14665    1.70047    9.36991
       O    15.67994    2.53260    9.55211
      H1    14.75704    2.23138    9.72313
       H    16.67301   -4.40243    8.24313
       O    17.18715   -3.62706    8.50113
      H1    17.73360   -3.74955    9.30381
       H    16.30419   -0.95345   10.29459
       O    17.16288   -0.91586   10.67443
      H1    17.53952   -1.47633   10.01536
       H    18.71176   -0.08320    7.24859
       O    17.95189    0.44854    7.08550
      H1    18.31161    1.31035    6.80772
       H    20.12574   -3.59737    3.31868
       O    19.32101   -3.66313    2.75609
      H1    18.61327   -3.17029    3.20207
       H    13.35383   -3.47354    7.68612
       O    13.92498   -4.14195    7.27820
      H1    13.97531   -4.00199    6.32191
       H    18.96248   -4.30497   14.42143
       O    18.04002   -4.59625   14.27230
      H1    17.64096   -3.82052   13.86163
       H    11.16415   -6.86919    6.91480
       O    11.75191   -7.29755    6.27293
      H1    12.42653   -6.69677    6.05384
       H    14.05520   -6.74804   12.66387
       O    14.23614   -6.16663   11.87166
      H1    14.03937   -5.26321   12.23307
       H    16.46993    2.27735   11.15644
       O    16.52731    1.73148   11.98935
      H1    16.89389    0.87362   11.67370
       H    19.16537   -6.99414    2.56783
       O    18.69518   -6.48472    3.20303
      H1    18.74306   -5.53347    3.01250
       H    11.62569   -0.52264   10.58755
       O    11.50078    0.37419   10.80145
      H1    10.54896    0.54273   10.77290
       H    18.90448   -9.43636    7.06446
       O    18.88309   -8.52092    7.47593
      H1    19.28839   -7.94968    6.82847
       H    16.50996    0.40474    6.00826
       O    15.80056    0.13356    5.45144
      H1    16.04871    0.75209    4.74046
       H    17.70833   -8.89784   13.50684
       O    17.42076   -9.72589   13.04207
      H1    16.80615   -9.62885   12.31557
       H    10.96465   -4.16352    7.98325
       O    10.53399   -5.08097    7.97807
      H1    10.55190   -5.36505    8.89365
       H    16.35748   -6.69228   16.47656
       O    16.67460   -5.77454   16.54807
      H1    17.12166   -5.60445   15.71480
       H    17.18995   -6.97484   11.10937
       O    16.86346   -6.35135   11.80510
      H1    15.89927   -6.41919   11.73375
       H    15.53381   -8.51533    7.37751
       O    16.13425   -8.58878    6.69007
      H1    17.00884   -8.34093    7.05047
       H    18.12574   -6.64558   13.70739
       O    18.49187   -7.43468   14.18386
      H1    19.44164   -7.19528   14.20227
       H    13.73022   -3.56466   14.08994
       O    13.98715   -3.46252   13.16904
      H1    14.87945   -3.10363   13.16175
       H    11.29399   -2.66190   10.57356
       O    12.11181   -2.21702   10.49362
      H1    12.73458   -2.56944   11.15311
       H    12.75745    2.12293    8.18335
       O    13.15271    1.44343    8.74232
      H1    12.49687    1.16955    9.44490
       H    15.83519  -10.73209   10.37934
       O    15.69720   -9.80047   10.73439
      H1    15.04449   -9.49916   10.05003
       H    18.41758   -8.27013    9.32488
       O    17.98640   -8.13573   10.20808
      H1    17.26060   -8.78705   10.32783

