123
frame 11 | Written by MDAnalysis XYZWriter (release 2.4.3)
       H     7.24839    9.69842   10.09134
       O     7.73189    8.90690   10.19928
      H1     7.88511    8.50553    9.32597
       H     5.72401    2.71023   11.89426
       O     5.41209    1.83417   11.68201
      H1     5.15880    1.39821   12.48307
       H     1.64514    3.26295    4.58680
       O     1.27313    3.81243    5.29762
      H1     2.00968    4.15040    5.80546
       H     1.90730    3.50870   10.07441
       O     2.43263    3.93043   10.74382
      H1     2.30853    3.39041   11.50325
       H    -0.72322    6.47788    6.33268
       O     0.21212    6.46398    6.59229
      H1     0.55132    5.63438    6.25933
       H    -0.48304    3.30467   13.35976
       O    -0.98894    3.33768   14.18395
      H1    -0.32054    2.98204   14.81410
       H     2.61480    5.78001    7.66321
       O     2.84109    4.99962    7.12555
      H1     3.71767    4.68047    7.25627
       H    -0.82725    3.76976    9.67021
       O    -1.37334    3.59056    8.85944
      H1    -2.12823    3.10819    9.32062
       H     5.64288    3.28256    6.35463
       O     5.04342    3.30340    7.10160
      H1     5.46628    3.93378    7.64791
       H     3.76634    6.83949   14.09870
       O     4.06529    7.76459   14.31976
      H1     3.53656    8.20694   14.99581
       H     0.82613    8.46368    6.49541
       O     1.53019    8.95675    7.01214
      H1     1.33016    9.89413    6.81296
       H     1.90808    5.76888   13.70408
       O     2.72027    5.39494   14.10582
      H1     2.64016    5.78890   14.96389
       H    -2.20808    6.51409   10.77962
       O    -2.15745    5.94748   11.61215
      H1    -2.83413    6.34725   12.24691
       H     1.97834   -1.13578    8.96351
       O     2.01548   -0.64037    9.77907
      H1     1.85858    0.26372    9.60558
       H     0.48789    9.27731   10.29232
       O     0.02967   10.11877   10.29778
      H1    -0.62620   10.05700    9.65267
       H     6.74025    7.64247   12.99178
       O     6.37671    7.13123   12.23672
      H1     6.74061    7.57391   11.43789
       H     7.38669    7.31430    6.81526
       O     6.93681    7.67184    7.63154
      H1     6.84216    8.64783    7.47254
       H     6.26623    5.92329    8.25444
       O     6.20981    5.09773    8.73536
      H1     5.56202    5.30136    9.43452
       H    -1.30490    5.66022    8.96257
       O    -1.57481    6.55914    8.92375
      H1    -0.79468    6.99530    8.59221
       H     6.43756    2.19448   15.14447
       O     5.83458    2.99721   15.08204
      H1     5.02859    2.76330   15.52246
       H     6.30590    4.08716   13.67879
       O     6.53556    4.36319   12.76236
      H1     6.34288    5.28294   12.63535
       H     6.63602   -0.49877    9.64567
       O     5.73265   -0.16335    9.74938
      H1     5.71724    0.58948   10.35864
       H     1.48902    7.39027   10.26812
       O     1.16468    7.79586   11.04533
      H1     0.71985    7.14941   11.61098
       H     2.49730    2.59755   16.33000
       O     3.46722    2.76571   16.33957
      H1     3.84771    2.48852   17.13867
       H    -0.48647    6.18478   12.73904
       O     0.26610    6.28788   13.30450
      H1    -0.05310    6.82646   14.12498
       H    -0.49115    2.70133    7.52275
       O    -0.39705    2.28161    6.65436
      H1     0.36323    2.70567    6.23865
       H     2.61254    8.69508   11.44627
       O     3.38059    9.28356   11.46546
      H1     4.05468    8.69392   11.73533
       H     0.99250    2.02441    8.00187
       O     1.59720    1.96525    8.75607
      H1     2.41595    1.87710    8.30621
       H     0.89622    0.25967   13.07193
       O     1.56778    0.38822   13.76246
      H1     2.02750    1.23437   13.56062
       H     2.93188    7.20981    9.02569
       O     2.08508    6.96911    8.63664
      H1     1.81860    7.67457    8.03123
       H     9.77695    5.39721   13.40745
       O     9.12924    5.21162   14.10871
      H1     8.29207    5.14448   13.68651
       H     3.61614    5.34651   10.37832
       O     4.25916    6.09186   10.34178
      H1     4.43774    6.27691   11.27113
       H     4.75478    0.46779    8.62153
       O     4.10156    0.74798    7.92991
      H1     4.38353    1.54297    7.52782
       H     3.82779    2.58621   12.99470
       O     2.87168    2.73646   13.12697
      H1     2.75485    3.52411   13.67486
       H     5.71221    8.65758   14.61913
       O     6.66586    8.86584   14.68849
      H1     7.03270    8.05391   15.12950
       H     3.37338   10.40328   13.22620
       O     3.01850   11.22238   13.54494
      H1     3.70073   11.93106   13.60140
       H    -1.83433    2.75361   11.53150
       O    -0.88079    2.67961   11.33070
      H1    -0.79134    1.83451   10.88844
       H     1.79078   13.08881   10.21658
       O     2.27684   12.42045    9.69451
      H1     1.86367   11.53806    9.89356
       H     8.55728    2.52000    9.63616
       O     8.61920    1.76257    9.09730
      H1     9.00811    1.06715    9.60359
       H     3.25700    7.86086    5.72504
       O     3.81110    7.77051    4.91079
      H1     4.38708    6.99842    5.03243
       H     7.90754    4.75490    9.76473
       O     8.57103    4.23460   10.23012
      H1     8.06812    4.17825   11.03516

