123
frame 7 | Written by MDAnalysis XYZWriter (release 2.4.3)
       H   -10.30045  -16.90311   -4.16354
       O    -9.34882  -16.91675   -4.21085
      H1    -9.20993  -16.99778   -3.26493
       H   -14.61384  -14.25401   -0.72281
       O   -15.26167  -13.66188   -1.10049
      H1   -16.13325  -14.06347   -1.01871
       H   -14.81016   -9.87983   -0.06581
       O   -14.73952   -9.88496   -0.98508
      H1   -14.82849  -10.81915   -1.10897
       H   -19.06797  -13.40709    3.26965
       O   -19.39390  -12.62648    2.83144
      H1   -18.82041  -11.87646    3.15429
       H   -10.13365  -17.47582    1.98669
       O    -9.28803  -17.77302    2.25292
      H1    -9.50113  -18.28077    3.05232
       H   -18.35531  -14.58990    5.69457
       O   -18.86824  -14.18748    6.44945
      H1   -19.23079  -15.00014    6.91245
       H   -16.83247  -15.25260   -8.14518
       O   -17.01123  -16.21314   -8.17735
      H1   -16.50373  -16.62291   -8.93217
       H   -16.78664  -15.74052   -3.94685
       O   -17.66078  -15.37368   -4.14068
      H1   -18.26525  -16.15750   -4.09350
       H   -17.96968  -15.92066    4.23165
       O   -18.12094  -14.96625    4.03177
      H1   -17.26073  -14.56137    3.70803
       H    -9.77936  -13.45659   -1.14790
       O    -9.43001  -12.55363   -1.06974
      H1   -10.14525  -11.93939   -1.17616
       H   -15.47466  -18.72179    0.15611
       O   -15.13902  -17.77466    0.25682
      H1   -14.85895  -17.88704    1.12453
       H   -16.82393   -9.33427   -1.33350
       O   -17.50178   -8.71411   -1.16240
      H1   -17.81418   -8.73004   -0.21070
       H   -15.35907  -17.97973    3.22245
       O   -14.38706  -17.94438    3.13550
      H1   -14.05080  -18.76761    3.53402
       H   -11.82853  -19.25892    7.25497
       O   -12.08636  -18.60509    6.59198
      H1   -12.60446  -19.12020    5.94181
       H   -18.41566  -17.63401   -7.16255
       O   -18.58681  -18.44631   -6.65609
      H1   -18.76758  -18.12701   -5.73638
       H   -12.67571  -11.82948    4.23014
       O   -12.71790  -12.00405    3.27970
      H1   -11.88324  -12.54451    3.13351
       H   -13.24243  -14.39945    1.38778
       O   -12.80616  -13.70844    0.75170
      H1   -13.08527  -12.89875    1.20375
       H   -12.11901  -16.57590    1.91629
       O   -11.59804  -16.95612    1.22996
      H1   -11.27906  -16.24483    0.60634
       H   -17.89037   -9.73677    4.48764
       O   -17.99213   -9.65861    3.53530
      H1   -17.18774  -10.10604    3.19297
       H   -18.64297  -13.85509   -1.42845
       O   -17.85958  -14.15389   -1.83900
      H1   -18.05437  -14.58165   -2.71339
       H   -16.67549  -10.35710   -5.35281
       O   -16.36585  -10.38053   -4.43718
      H1   -17.02029  -10.61002   -3.79708
       H   -17.48994  -12.40749   -2.49180
       O   -17.72562  -11.48030   -2.53081
      H1   -18.67510  -11.43356   -2.40950
       H   -14.88321   -9.81011    3.02009
       O   -15.35604  -10.46030    2.46240
      H1   -14.80726  -11.23592    2.54623
       H   -12.78097   -9.73373   -4.44574
       O   -12.23528  -10.54432   -4.18619
      H1   -12.96884  -11.20068   -3.99719
       H   -17.48192  -15.89637   -1.13678
       O   -17.56325  -16.79661   -0.75134
      H1   -16.72064  -17.08511   -0.37315
       H   -19.11915  -14.25825   -6.55555
       O   -18.86024  -13.42756   -6.08054
      H1   -18.51859  -13.89021   -5.31864
       H   -15.20292  -11.88774   -4.18931
       O   -14.44825  -12.45397   -4.01326
      H1   -14.63068  -12.82092   -3.15335
       H   -16.42565  -12.36213    2.92428
       O   -16.26398  -12.76358    3.80859
      H1   -16.85869  -12.26436    4.37050
       H   -15.10086  -16.53482    7.28672
       O   -15.87607  -16.07795    6.89386
      H1   -16.17148  -15.57899    7.70238
       H   -17.92702  -18.26822   -2.01769
       O   -18.12549  -19.10220   -2.51877
      H1   -17.31083  -19.62882   -2.40896
       H   -17.35797  -18.27269    5.04399
       O   -16.97394  -17.45071    4.70549
      H1   -16.37560  -17.06200    5.37856
       H   -13.67616  -12.92007   -7.05759
       O   -13.22551  -13.72333   -6.69609
      H1   -12.26207  -13.44557   -6.67943
       H   -11.24990  -14.93827   -1.52803
       O   -10.89701  -15.07584   -0.64915
      H1   -11.43422  -14.40902   -0.17857
       H   -13.59130  -18.92322   -5.19184
       O   -13.02469  -18.19956   -5.32982
      H1   -13.46339  -17.52039   -5.82506
       H   -15.04952  -13.62912    4.81359
       O   -14.54244  -14.22297    5.41495
      H1   -15.11545  -15.00038    5.62356
       H   -12.28278  -17.22315   -2.52215
       O   -12.07949  -16.69206   -3.28999
      H1   -12.41486  -17.20074   -4.03298
       H   -13.58248  -16.24356    3.12142
       O   -13.07488  -15.43752    3.33561
      H1   -13.53298  -15.03193    4.08919
       H   -14.68330  -14.59240   -4.34421
       O   -14.87171  -15.37336   -3.86890
      H1   -14.03349  -15.63348   -3.48371
       H   -12.17058  -13.49230   -4.33935
       O   -11.73265  -13.87108   -3.56446
      H1   -11.89297  -14.82003   -3.75083
       H   -11.95218  -17.85895   -0.27387
       O   -12.53753  -18.26198   -0.90604
      H1   -13.35259  -18.05992   -0.49728
       H   -15.12452  -16.41557   -7.70209
       O   -14.20850  -16.27396   -7.41209
      H1   -13.97627  -15.29706   -7.63542

