123
frame 0 | Written by MDAnalysis XYZWriter (release 2.4.3)
       H   -10.78352  -16.02988   -7.10330
       O   -10.37781  -15.70651   -7.90041
      H1   -10.03279  -16.51610   -8.32587
       H    -9.49369  -18.97306   -7.33927
       O    -9.47133  -19.07114   -6.41392
      H1   -10.34799  -18.89963   -6.04145
       H    -1.44407  -15.59197   -9.50814
       O    -2.12712  -15.36748   -8.83713
      H1    -2.56701  -14.64273   -9.31407
       H    -9.92012  -16.05290   -3.06312
       O    -9.60970  -15.58645   -3.84832
      H1    -8.90070  -16.17044   -4.20607
       H    -6.50927  -15.78272  -14.67490
       O    -6.79365  -16.66239  -14.38597
      H1    -6.08154  -17.27288  -14.59698
       H   -12.14074  -18.29484   -5.12734
       O   -11.51647  -18.97353   -4.80937
      H1   -12.03276  -19.79228   -4.83177
       H   -10.29707  -14.82553  -12.53074
       O   -10.12171  -14.49789  -11.60649
      H1    -9.85828  -13.56558  -11.75780
       H   -13.24358  -17.49583   -9.66773
       O   -13.87211  -17.19930   -9.02188
      H1   -13.63814  -16.29078   -8.83720
       H    -6.72061  -17.34824  -11.15217
       O    -6.01362  -17.47616  -11.85194
      H1    -6.32221  -17.04566  -12.71024
       H    -4.64827  -14.66096  -12.35658
       O    -5.04551  -13.91138  -11.89514
      H1    -4.77432  -13.28495  -12.57837
       H   -11.78535  -16.07927  -13.83678
       O   -10.85621  -15.76924  -14.04441
      H1   -10.91510  -15.38874  -14.92908
       H    -9.87110  -14.09649   -7.46125
       O    -9.35316  -13.29489   -7.28289
      H1    -8.64563  -13.65924   -6.70568
       H    -8.33660  -18.08296   -5.49455
       O    -7.70287  -17.34415   -5.27395
      H1    -7.40269  -17.03925   -6.16995
       H    -6.71281  -14.96759   -7.00654
       O    -6.57008  -15.88196   -7.40108
      H1    -6.96605  -15.90638   -8.28490
       H    -2.91691  -15.84471  -12.83700
       O    -3.85014  -16.04378  -12.98839
      H1    -4.14528  -16.61592  -12.22577
       H    -9.44886  -18.44099   -1.36062
       O    -9.51351  -18.43297   -2.33442
      H1   -10.39163  -18.19418   -2.57750
       H   -10.20091  -18.10104   -9.91229
       O    -9.62382  -17.96580   -9.15412
      H1    -8.72731  -18.27913   -9.33748
       H    -6.46664  -19.09642   -9.03641
       O    -7.19803  -19.10866   -9.65264
      H1    -6.86140  -19.71645  -10.39302
       H    -6.26111  -12.97495   -6.21770
       O    -7.03893  -13.43598   -5.84689
      H1    -7.06494  -13.46302   -4.87299
       H    -4.19597  -13.43330  -10.41892
       O    -3.62515  -13.07050   -9.69917
      H1    -4.10376  -12.96618   -8.89361
       H    -5.62329  -17.89198   -2.83449
       O    -5.38115  -17.85944   -3.79462
      H1    -6.15769  -17.49432   -4.20722
       H   -15.41241  -17.36774  -10.06421
       O   -16.06343  -17.54548  -10.79190
      H1   -16.84453  -16.98137  -10.52706
       H    -8.88988  -12.35468   -5.51289
       O    -9.25189  -11.80184   -4.81527
      H1    -8.49381  -11.63607   -4.27129
       H    -2.97850  -17.14512   -6.87035
       O    -2.08457  -17.26019   -6.35644
      H1    -1.65922  -16.37388   -6.49574
       H   -11.74080  -11.88384  -11.29198
       O   -11.58319  -12.04929  -10.32017
      H1   -11.40373  -12.99179  -10.17499
       H    -1.72765  -19.17483  -12.54867
       O    -2.15150  -18.72909  -11.84453
      H1    -1.50152  -18.42165  -11.25502
       H   -14.62309  -18.92965   -7.86835
       O   -15.36758  -19.42999   -7.73593
      H1   -15.65042  -19.29818   -6.77817
       H    -8.52654  -17.15424  -17.26336
       O    -8.63780  -16.56558  -16.48521
      H1    -7.91336  -16.68858  -15.86222
       H   -11.71542  -18.93314  -11.70227
       O   -11.53261  -18.02520  -11.38390
      H1   -12.18308  -17.53336  -11.89988
       H    -6.85290  -15.15149  -10.59567
       O    -7.54712  -15.30476   -9.93449
      H1    -8.38281  -15.08252  -10.41519
       H    -9.67610  -17.65605  -12.69375
       O    -8.90785  -18.14147  -13.05810
      H1    -8.39430  -17.49851  -13.56723
       H   -12.57799  -15.03208   -5.54530
       O   -11.83352  -15.73843   -5.48862
      H1   -11.16427  -15.40112   -4.85837
       H   -11.60298  -19.82648  -14.61810
       O   -10.78908  -19.35260  -14.85452
      H1   -10.53947  -18.84423  -14.08130
       H    -7.97205  -17.17638   -2.41714
       O    -7.29831  -16.50833   -2.09148
      H1    -7.35366  -15.77950   -2.75195
       H   -14.20809  -16.56028  -13.10928
       O   -13.41519  -16.07616  -12.92164
      H1   -13.77325  -15.22497  -12.85217
       H   -14.17079  -14.36955   -9.47023
       O   -14.95958  -13.95125   -9.84562
      H1   -14.66193  -13.50767  -10.62841
       H   -12.39769  -17.27688   -2.10537
       O   -12.07197  -16.59666   -2.73602
      H1   -12.46193  -16.83458   -3.60961
       H    -3.51263  -16.64461   -8.49929
       O    -4.21321  -17.17653   -7.99313
      H1    -4.96007  -16.59018   -7.70052
       H    -7.32232  -13.01399   -9.83426
       O    -7.24414  -12.13615  -10.16105
      H1    -7.99556  -11.63186   -9.78944
       H   -11.95996  -14.99630   -8.40405
       O   -12.80221  -14.52483   -8.48239
      H1   -13.13548  -14.37562   -7.62076
       H    -4.12761  -19.00243   -8.36904
       O    -4.43957  -19.92274   -8.30438
      H1    -4.53818  -19.96856   -7.33406

