123
frame 2 | Written by MDAnalysis XYZWriter (release 2.4.3)
       H     8.95308   -0.95879    0.09298
       O     8.21523   -1.58298    0.10831
      H1     8.64506   -2.40036    0.27709
       H    11.90467   -1.36678   -0.01711
       O    12.45698   -1.25463   -0.83469
      H1    12.63308   -2.19940   -1.15586
       H    14.58552   -4.34523    2.52822
       O    13.91508   -4.85186    2.95754
      H1    14.51689   -5.56916    3.38169
       H    13.02162  -10.28447    0.13560
       O    12.16846   -9.89436   -0.18369
      H1    11.88948  -10.60064   -0.80724
       H     5.52720   -2.23654    1.92637
       O     5.81788   -2.87826    1.21496
      H1     6.45903   -2.34774    0.71089
       H    13.37927   -5.45180   -4.07398
       O    14.11016   -5.48614   -3.44065
      H1    14.02661   -6.40205   -3.06585
       H    13.39513   -4.53206   -2.41167
       O    12.85901   -4.23179   -1.64654
      H1    11.95123   -4.26263   -1.94180
       H    12.10812   -1.73745   -7.18403
       O    12.44307   -2.65501   -7.35804
      H1    11.63916   -3.08106   -7.45553
       H     9.46938   -1.24218    2.83269
       O     8.89743   -0.98831    3.50317
      H1     8.08094   -0.73257    3.01639
       H    18.24878   -5.44312   -0.10766
       O    17.45296   -5.11198   -0.47767
      H1    17.43396   -4.13246   -0.27110
       H    16.36395   -1.10967   -2.59750
       O    17.22093   -1.31211   -2.16885
      H1    17.45741   -0.58096   -1.60572
       H     8.70899   -5.09722    0.27242
       O     8.62524   -4.26918   -0.13633
      H1     9.26158   -4.30477   -0.90725
       H    11.53587   -0.47857    1.73939
       O    10.89986   -1.18388    1.55880
      H1    11.18671   -1.93294    2.12683
       H    13.19663   -9.46576   -2.22086
       O    13.92975   -9.27643   -2.77472
      H1    14.61334   -8.87878   -2.29403
       H     9.10415   -7.15249   -0.71805
       O     8.67780   -7.40092   -1.48773
      H1     9.39559   -7.64032   -2.07108
       H     9.81937   -7.30655   -4.22947
       O    10.02864   -8.06924   -3.71819
      H1     9.60781   -8.81483   -4.17079
       H    16.04090   -2.85077    0.99649
       O    15.10772   -3.15620    1.06108
      H1    15.08020   -3.77330    0.26245
       H    12.47768   -8.66852   -5.53863
       O    13.28699   -8.13826   -5.49328
      H1    13.55378   -8.34474   -4.58382
       H     9.64369    1.07618   -3.75113
       O    10.21842    0.65799   -3.11983
      H1    11.11031    0.80492   -3.39868
       H    10.56352   -4.93115   -8.60453
       O    10.04517   -4.33305   -7.96205
      H1     9.22788   -4.80750   -7.78850
       H    14.40913    1.31165   -1.38453
       O    14.18095    0.58883   -2.03264
      H1    13.43592    0.09884   -1.58116
       H    14.91979   -4.03674   -9.08092
       O    14.23196   -4.32826   -8.43404
      H1    13.77278   -3.54686   -8.01725
       H    13.70311   -7.26851   -7.08229
       O    14.29750   -7.04011   -7.84604
      H1    14.17900   -6.11290   -8.01153
       H    12.05745   -4.00708    2.92734
       O    11.24886   -3.58111    3.16280
      H1    10.60469   -4.30472    3.29468
       H    12.94499    2.25477   -4.64463
       O    12.69797    1.37348   -4.23908
      H1    13.31456    1.43327   -3.47648
       H    16.31782   -3.60767   -4.82035
       O    17.06404   -3.50352   -4.20827
      H1    16.93757   -2.57498   -3.85888
       H    12.93951   -5.53415   -0.60618
       O    13.07369   -6.45975   -0.17775
      H1    14.01888   -6.65152   -0.19600
       H     5.72707   -4.58357   -1.44411
       O     6.50721   -4.11419   -1.77314
      H1     7.13228   -4.31117   -1.09181
       H     8.67601   -1.71164   -1.97458
       O     9.34662   -1.89246   -2.62063
      H1     9.86607   -1.09974   -2.76417
       H    15.05345   -0.78270    0.47552
       O    15.08015   -0.35882    1.37062
      H1    14.38907   -0.85891    1.82847
       H    12.16818   -3.51180   -4.42170
       O    12.28820   -2.56398   -4.57575
      H1    12.39001   -2.55620   -5.56836
       H    12.64104    0.43647   -5.95534
       O    12.29212    0.11180   -6.76295
      H1    12.86204    0.64700   -7.34236
       H     9.72749   -5.00736   -2.88737
       O    10.21479   -4.44084   -2.25946
      H1     9.92132   -3.46972   -2.36708
       H    14.38888   -0.41124   -3.50821
       O    14.81686   -1.02951   -4.04871
      H1    14.01051   -1.50828   -4.42190
       H    11.99757   -7.41222    1.03086
       O    11.45767   -7.94183    1.58141
      H1    11.57093   -8.83841    1.21633
       H     9.46352   -6.93341    1.81280
       O     8.65898   -6.95374    1.29123
      H1     7.97203   -6.63462    1.93440
       H    15.73131   -6.57027   -1.21466
       O    15.59561   -7.46877   -1.49366
      H1    16.17213   -7.94675   -0.96171
       H     7.46129   -0.13885   -4.68693
       O     7.88485   -1.01046   -4.87544
      H1     8.41312   -1.29844   -4.15997
       H    12.65119   -5.45115   -6.42050
       O    12.24975   -5.19881   -5.58032
      H1    11.31841   -5.05998   -5.86638
       H     7.51828   -5.19852   -2.95636
       O     8.07244   -5.81118   -3.49964
      H1     8.05440   -6.52843   -2.78845
       H     9.97014    0.94127   -1.36449
       O     9.32408    1.02497   -0.64755
      H1     9.89046    1.22348    0.13556

