123
frame 3 | Written by MDAnalysis XYZWriter (release 2.4.3)
       H    17.99194    2.32374   -6.72893
       O    18.97470    2.49168   -6.60001
      H1    19.43819    1.80225   -6.07917
       H    18.88329    1.01293   -9.73016
       O    19.67134    1.32848   -9.22506
      H1    19.32622    1.48016   -8.32705
       H    18.59319    4.25802   -9.23358
       O    18.84410    5.22122   -9.20571
      H1    18.28609    5.67941   -9.82787
       H    13.54824   -4.72234   -4.15316
       O    14.25373   -5.38802   -4.12345
      H1    13.99528   -6.17537   -4.66487
       H    13.01292    4.07562   -6.25135
       O    12.82507    4.57984   -5.44879
      H1    13.04967    5.49352   -5.58793
       H    13.84897    0.53265   -9.34249
       O    13.06203    1.04040   -9.61576
      H1    12.44464    0.37104   -9.87763
       H    11.76838   -0.76337   -7.48199
       O    12.19159   -1.54781   -7.80483
      H1    12.39834   -1.40746   -8.67530
       H    15.80183    2.75116   -4.04683
       O    15.69096    3.66471   -3.72361
      H1    15.86217    4.13255   -4.55523
       H    15.62218    5.44964   -7.05216
       O    16.02842    5.36591   -6.19666
      H1    16.79349    5.97058   -6.24539
       H     9.74971    1.27871   -7.24942
       O     8.84027    1.35956   -7.00003
      H1     8.44217    1.98666   -7.62668
       H    17.18912   -1.39314   -1.84933
       O    17.64596   -0.95948   -2.55596
      H1    17.64504   -0.02396   -2.30016
       H    18.05464   -0.92478  -11.61353
       O    18.56135   -1.67182  -12.04041
      H1    19.41017   -1.30481  -12.34863
       H    14.34913   -2.35634  -11.68248
       O    14.29330   -2.89143  -10.90604
      H1    13.28403   -2.95757  -10.71560
       H    10.82330    0.66878   -3.71271
       O    10.09207    1.03006   -3.12266
      H1     9.34893    0.99406   -3.71997
       H    10.15847   -4.47938   -8.23275
       O     9.63853   -3.85503   -7.62568
      H1     8.77977   -4.31746   -7.41879
       H    13.26714    0.78331   -1.64299
       O    13.24834    0.05327   -2.27414
      H1    12.70197   -0.63715   -1.76243
       H    14.64267   -3.73902   -7.68094
       O    14.52197   -4.66337   -7.47505
      H1    13.59154   -4.74413   -7.17991
       H    17.73423    3.12784  -11.56239
       O    17.00319    3.46920  -11.02803
      H1    16.31084    3.87509  -11.56759
       H    16.17374   -1.76271   -8.30125
       O    15.42221   -1.36608   -8.69258
      H1    15.21510   -1.91721   -9.46262
       H    13.16994    2.80987   -4.42382
       O    13.22800    1.87881   -4.50555
      H1    13.20808    1.58356   -3.61728
       H    15.71242   -4.35920   -4.68316
       O    16.42945   -3.75964   -4.92012
      H1    16.27481   -3.00945   -4.39375
       H    17.27056    3.62990   -3.52051
       O    18.25604    3.70396   -3.45224
      H1    18.68447    3.29784   -4.24047
       H    14.72282    1.44368  -13.61718
       O    14.28139    1.22202  -12.75463
      H1    13.39733    1.70485  -12.73324
       H    10.05127    4.68477   -3.91264
       O    10.23976    4.31288   -4.78692
      H1    11.20755    4.40253   -4.95636
       H    11.38772   -3.67571  -10.23202
       O    11.56987   -2.91994  -10.72153
      H1    10.80783   -2.34813  -10.68107
       H     9.88165   -0.17829  -10.04001
       O    10.72935    0.02094  -10.42761
      H1    10.66288    0.93076  -10.73532
       H     8.79194   -0.41527   -7.62908
       O     8.99809   -1.03601   -8.33781
      H1     9.14962   -1.89893   -7.94811
       H    12.09359   -3.32584   -4.97220
       O    12.63701   -2.57695   -5.21839
      H1    12.34841   -2.37393   -6.11994
       H    12.05642    1.35224   -5.83623
       O    11.60466    1.09409   -6.62851
      H1    11.53701    1.90083   -7.14553
       H    15.82217    0.23745   -5.10880
       O    16.57765    0.70349   -4.67483
      H1    16.74171    0.09995   -3.91352
       H    14.29610   -1.19065   -2.79080
       O    14.81808   -1.82359   -3.35399
      H1    14.20536   -1.66461   -4.17090
       H    13.45929    3.32394   -8.21797
       O    14.01912    3.10213   -7.42714
      H1    14.31657    2.15737   -7.38535
       H    15.93401    2.88060   -7.85405
       O    16.54053    2.30095   -8.31862
      H1    16.60247    2.75757   -9.17681
       H    14.66445   -0.05766   -7.38015
       O    14.50688    0.60207   -6.71766
      H1    13.53294    0.66423   -6.82337
       H    16.41014    0.99363  -10.64237
       O    17.04422    0.28420  -10.33928
      H1    16.48920   -0.19937   -9.71731
       H    14.74545   -1.84141  -13.39906
       O    13.99211   -1.41435  -13.10198
      H1    14.10884   -0.50068  -12.76211
       H    10.89303    4.21918   -9.20932
       O    11.48560    3.55795   -8.83093
      H1    11.69715    2.97172   -9.55861
       H    10.63165   -4.37539   -6.11069
       O    11.05645   -4.81423   -5.37290
      H1    10.69219   -5.70514   -5.33750
       H    17.43392   -2.78998   -6.51796
       O    17.54243   -2.65367   -7.49438
      H1    17.32673   -3.52955   -7.88598
       H    16.30511   -5.19597   -9.81559
       O    16.73033   -4.36129   -9.91095
      H1    16.11192   -3.90959  -10.52024
       H    16.21587    6.62633   -8.77816
       O    15.43559    6.07993   -8.69852
      H1    15.61239    5.28687   -9.19945

