123
frame 6 | Written by MDAnalysis XYZWriter (release 2.4.3)
       H   -13.55502  -14.97719  -17.72467
       O   -14.08332  -14.15058  -17.86100
      H1   -14.00330  -13.71345  -17.01395
       H   -17.85259   -2.88230  -12.18687
       O   -17.69136   -2.20719  -12.88908
      H1   -17.35652   -2.62533  -13.68529
       H   -18.14806  -13.43422  -10.78691
       O   -17.31689  -13.17495  -11.24633
      H1   -17.01490  -12.32236  -10.82802
       H   -16.35529   -5.88609  -13.88635
       O   -16.96555   -5.18773  -14.19215
      H1   -17.81168   -5.57267  -14.31372
       H   -10.58234  -10.79474  -13.97459
       O   -11.10422  -11.25856  -14.58063
      H1   -10.55550  -11.96652  -14.97273
       H   -15.99328   -2.52513  -12.54101
       O   -15.10946   -2.85036  -12.26860
      H1   -15.15726   -3.85198  -12.16827
       H   -14.78833  -15.99288  -18.17043
       O   -14.58925  -16.92306  -18.12822
      H1   -14.31701  -17.16154  -19.04277
       H   -18.79338   -0.68027  -16.56345
       O   -19.19627   -1.37185  -16.05543
      H1   -18.67895   -2.18282  -16.25722
       H   -14.15566  -10.65707  -13.09752
       O   -13.63617   -9.83664  -13.03966
      H1   -14.19787   -9.09781  -13.33915
       H   -18.32476  -13.96602  -16.41618
       O   -19.11769  -14.38750  -16.81775
      H1   -18.90314  -15.28566  -16.52305
       H   -14.12637  -10.88751  -15.44974
       O   -14.63316  -11.65479  -15.73522
      H1   -15.50759  -11.46158  -16.08175
       H   -16.16187   -7.37027  -16.92205
       O   -17.08579   -7.65213  -16.79495
      H1   -17.21622   -8.42680  -17.40292
       H   -11.37254   -8.46995  -19.14478
       O   -10.69656   -7.82188  -19.33753
      H1    -9.91257   -8.19951  -18.83294
       H   -16.05133  -10.06474  -18.11958
       O   -15.11861   -9.78472  -17.94249
      H1   -14.94216  -10.09032  -17.02489
       H   -14.10315  -12.95831  -14.81776
       O   -14.06390  -13.60443  -14.06238
      H1   -13.19043  -13.49111  -13.65235
       H   -11.49306   -7.51473  -16.46283
       O   -11.60679   -6.63108  -16.14927
      H1   -10.89327   -6.07512  -16.54408
       H   -17.42449  -18.49910  -18.78287
       O   -17.84482  -18.76510  -19.58951
      H1   -17.82311  -18.07908  -20.24959
       H   -16.20383   -0.54375  -19.14690
       O   -15.26842   -0.62786  -18.96364
      H1   -15.32015   -0.53578  -18.02644
       H   -13.26113  -10.35222  -18.65036
       O   -12.36330  -10.03510  -18.75777
      H1   -11.76239  -10.77271  -18.95772
       H   -17.91685  -11.75725  -17.53348
       O   -17.50359  -11.70467  -16.64672
      H1   -17.93288  -10.96271  -16.15753
       H   -15.08159   -7.42637  -14.77822
       O   -15.45566   -7.79394  -14.02334
      H1   -16.07484   -8.44598  -14.41989
       H   -16.32758   -4.82312  -18.34135
       O   -15.52989   -4.21500  -18.30401
      H1   -15.28129   -3.93009  -19.17190
       H   -19.63243   -7.54707  -13.47961
       O   -19.08411   -6.74858  -13.16700
      H1   -19.04499   -6.84376  -12.22055
       H   -16.23898  -14.10112  -17.64965
       O   -16.82678  -14.85382  -17.90778
      H1   -17.73639  -14.73699  -17.53271
       H   -14.43852   -5.43429  -16.94290
       O   -14.36549   -6.34158  -16.52719
      H1   -13.38422   -6.55220  -16.39672
       H   -17.14732  -17.82449  -16.62341
       O   -16.53457  -18.31841  -17.18608
      H1   -15.83060  -17.64666  -17.41783
       H   -12.21871   -8.25756  -13.39975
       O   -12.33104   -7.29636  -13.48956
      H1   -12.03576   -7.18044  -14.43835
       H   -16.66032   -3.89461  -15.60672
       O   -16.66125   -2.97841  -15.96706
      H1   -16.14887   -3.13140  -16.78286
       H   -15.80253  -15.90799  -13.11654
       O   -15.67419  -15.75828  -14.03722
      H1   -15.03152  -15.02632  -14.04990
       H   -18.43876   -5.09383  -17.90030
       O   -17.83224   -5.45286  -18.50112
      H1   -17.64376   -6.32901  -18.20353
       H   -15.95084   -7.73681  -10.21857
       O   -16.34945   -6.82626  -10.13700
      H1   -16.00210   -6.43494  -10.92784
       H   -19.00476  -12.00702  -13.59102
       O   -18.62372  -11.39764  -12.93390
      H1   -18.03330  -12.03103  -12.41005
       H   -14.83524   -3.11538  -15.97197
       O   -13.91986   -3.36328  -15.67678
      H1   -13.82686   -3.02527  -14.76629
       H   -11.11012   -1.75454  -17.97777
       O   -11.26354   -2.06965  -17.07969
      H1   -12.07309   -2.56386  -17.06511
       H   -18.61140   -8.86282  -19.14524
       O   -17.65135   -9.19835  -19.19650
      H1   -17.31189   -9.02708  -20.06005
       H   -14.06982   -8.21658  -19.05790
       O   -13.92634   -7.62292  -19.80617
      H1   -13.65149   -6.76865  -19.39784
       H   -17.77875  -10.13422  -14.13920
       O   -17.41423   -9.64493  -14.93303
      H1   -17.76321   -8.76331  -14.99765
       H   -18.14978  -11.11279  -19.45719
       O   -18.53692  -11.99517  -19.24446
      H1   -17.92345  -12.63080  -19.67688
       H   -18.58886  -17.32788  -14.94982
       O   -18.09373  -16.65197  -15.42918
      H1   -17.32062  -16.41777  -14.91349
       H   -12.39093   -9.55920  -16.99262
       O   -12.42463   -9.45500  -16.00590
      H1   -11.94265  -10.29799  -15.69364
       H   -14.30173   -6.10510  -12.78077
       O   -14.47392   -5.51263  -12.07678
      H1   -13.65825   -5.37359  -11.56805

