123
frame 5 | Written by MDAnalysis XYZWriter (release 2.4.3)
       H   -10.12768   -1.40265  -11.20298
       O   -10.30945   -0.54196  -11.60553
      H1   -10.99983   -0.56108  -12.24362
       H   -17.61661   -2.84183  -11.64874
       O   -17.22362   -2.84538  -12.56068
      H1   -17.16815   -3.81005  -12.74047
       H   -17.55252    0.86766  -15.02879
       O   -17.21802    1.26038  -14.17503
      H1   -17.06399    2.18831  -14.44152
       H    -9.55593   -4.08680  -16.72569
       O    -9.72310   -4.96657  -17.16383
      H1    -9.94873   -4.59138  -18.04594
       H   -15.64326    0.38086  -13.46292
       O   -15.09988   -0.04813  -12.79427
      H1   -14.26637   -0.29188  -13.19198
       H    -8.79752   -0.48134  -15.96187
       O    -9.74382   -0.61331  -15.90124
      H1    -9.94897   -0.72669  -16.84442
       H   -14.54651    1.11478  -16.33313
       O   -15.05758    1.78561  -16.84461
      H1   -15.51652    2.20259  -16.07186
       H   -16.82108   -6.37544  -13.97665
       O   -17.40689   -5.66965  -13.65071
      H1   -18.13952   -6.06494  -13.09604
       H   -15.39038   -2.54671  -12.22233
       O   -14.50893   -2.96518  -11.97031
      H1   -14.77561   -3.86697  -11.76926
       H   -15.67100    6.37508  -17.44057
       O   -15.64911    5.37605  -17.31658
      H1   -14.80932    4.98985  -17.66778
       H   -17.60058    0.05534  -17.21613
       O   -17.79316   -0.49176  -16.39968
      H1   -17.21943   -1.25071  -16.42852
       H   -10.65593    4.47819  -18.87396
       O   -11.19886    3.73825  -19.14901
      H1   -12.03147    3.97804  -18.64693
       H   -18.81518    2.86484  -17.61987
       O   -19.28239    2.04101  -17.95519
      H1   -18.62266    1.56307  -18.53436
       H   -15.10094    1.18128  -11.31863
       O   -15.24937    1.86949  -10.63632
      H1   -16.09830    2.37114  -10.69109
       H   -16.43625   -7.83103  -17.96649
       O   -17.18131   -7.30388  -17.70626
      H1   -17.95584   -7.67487  -18.09806
       H   -11.09800   -8.55924  -19.11564
       O   -10.13645   -8.24510  -19.09272
      H1    -9.64395   -9.05782  -18.94707
       H   -13.14916   -2.35277  -12.87520
       O   -12.33389   -2.01395  -13.31116
      H1   -12.58285   -1.28367  -13.88864
       H   -11.57700   -7.38766  -15.93830
       O   -11.61397   -6.48472  -15.59486
      H1   -11.02468   -5.92684  -16.15936
       H    -7.62161   -2.97944  -17.49971
       O    -7.93533   -2.82056  -18.39976
      H1    -7.90727   -3.71838  -18.79828
       H   -15.84656   -0.66796  -18.85666
       O   -15.17919   -1.00388  -19.45100
      H1   -14.59297   -1.36126  -18.73591
       H   -20.08667   -1.35672  -12.49823
       O   -19.78913   -1.68487  -13.32469
      H1   -18.88025   -1.84833  -13.11562
       H   -15.39625   -7.35390  -15.14077
       O   -15.87895   -7.73151  -14.38856
      H1   -16.68054   -8.10994  -14.81871
       H   -11.57089   -3.61097  -13.11244
       O   -11.07592   -4.40273  -12.80585
      H1   -11.46832   -5.12960  -13.33094
       H   -16.27607   -4.59146  -18.83511
       O   -15.36225   -4.34461  -18.65218
      H1   -15.09190   -3.89264  -19.42004
       H    -9.55176   -2.26458  -14.99806
       O    -9.35926   -3.23020  -14.92995
      H1    -9.82483   -3.53391  -14.14248
       H    -9.51470   -2.21393  -18.45901
       O   -10.24229   -1.60248  -18.49996
      H1   -10.81245   -1.91143  -19.22449
       H   -10.38533    3.10659  -17.60920
       O    -9.76753    2.96795  -16.89141
      H1   -10.43310    2.49181  -16.33742
       H   -14.37745   -5.47813  -16.09962
       O   -14.26635   -6.40953  -16.16932
      H1   -13.32680   -6.55343  -15.99844
       H   -15.35098    4.75748  -12.38626
       O   -14.85788    3.95464  -12.68568
      H1   -15.01284    3.32470  -12.00642
       H   -16.56401   -3.25842  -15.70548
       O   -16.47563   -2.83347  -16.53338
      H1   -16.34454   -3.52141  -17.19453
       H   -10.54766    0.83485  -14.92080
       O   -11.11996    1.60733  -14.99191
      H1   -10.82236    2.17293  -14.24872
       H   -19.00676   -4.98520  -18.63646
       O   -18.05874   -5.01042  -18.76748
      H1   -17.79109   -5.76962  -18.25628
       H   -14.65602   -3.22884  -16.18941
       O   -13.89723   -3.65816  -15.70057
      H1   -13.52506   -3.12282  -14.95589
       H   -11.88998   -1.80221  -17.46928
       O   -12.81452   -1.82901  -17.22688
      H1   -13.03288   -2.67423  -16.76897
       H   -13.99311    3.68210  -19.07695
       O   -13.79200    3.81640  -18.12500
      H1   -14.09030    3.02549  -17.69598
       H   -13.78855   -7.76286  -19.21712
       O   -14.10234   -7.05778  -19.78804
      H1   -14.23395   -6.32453  -19.18197
       H   -18.35336    4.54137  -16.10751
       O   -18.24594    4.37490  -17.02146
      H1   -17.38977    4.83046  -17.23466
       H   -18.97742   -8.80436  -15.30976
       O   -18.02270   -8.79872  -15.56075
      H1   -17.80267   -8.27350  -16.31484
       H   -12.84102   -0.67716  -15.64312
       O   -13.20106   -0.03545  -15.02599
      H1   -12.50475    0.67387  -15.02190
       H    -7.77763   -3.08201  -15.43443
       O    -6.92701   -2.81789  -15.89289
      H1    -6.30797   -2.28711  -15.31289
       H   -15.76508    4.38309  -15.88971
       O   -16.17212    3.94090  -15.13446
      H1   -15.67147    4.18911  -14.35993

