123
frame 3 | Written by MDAnalysis XYZWriter (release 2.4.3)
       H   -10.81781  -15.92720   -8.06777
       O   -10.39077  -16.36362   -8.81147
      H1    -9.98129  -17.15248   -8.51041
       H   -10.40389  -18.73211   -6.44997
       O   -10.25658  -18.67719   -5.46670
      H1   -11.19645  -18.59060   -5.18495
       H   -12.50889  -17.63295  -16.05942
       O   -12.12436  -17.59310  -16.96254
      H1   -11.40173  -18.24164  -16.90155
       H   -11.56766  -12.74079  -16.97986
       O   -12.17653  -13.13070  -16.26024
      H1   -11.48015  -13.71148  -15.86824
       H   -10.02486  -15.36583  -15.82424
       O   -10.21097  -14.61473  -15.30929
      H1    -9.50343  -13.95461  -15.26649
       H    -8.05012  -17.19277  -15.30696
       O    -7.90628  -17.79219  -14.58205
      H1    -7.11054  -18.21918  -14.92391
       H    -6.38130  -10.92773  -10.52124
       O    -6.27352   -9.98259  -10.85490
      H1    -5.34371   -9.79941  -10.81131
       H   -11.47142  -14.99217  -11.62580
       O   -11.19474  -14.61849  -10.75191
      H1   -10.78266  -15.33862  -10.25077
       H    -8.76235   -9.72263  -12.88075
       O    -9.52259  -10.32090  -12.98747
      H1    -9.29583  -11.04546  -13.54399
       H   -14.02804  -17.90815   -8.34756
       O   -14.44322  -17.42713   -7.59456
      H1   -15.34398  -17.20561   -7.91687
       H    -7.06398  -17.25897  -12.03425
       O    -7.03383  -16.29077  -11.99483
      H1    -6.70759  -16.03253  -12.82724
       H   -13.17538   -9.51658  -10.15929
       O   -13.65518   -9.69861  -10.97318
      H1   -14.61722   -9.69496  -10.76200
       H    -5.34850  -14.90262  -11.81294
       O    -4.99199  -14.05329  -12.07975
      H1    -5.77568  -13.48403  -12.08401
       H    -9.93098  -11.36105   -9.76914
       O    -9.23294  -11.27603   -9.05292
      H1    -9.47886  -11.99911   -8.37354
       H   -12.66577  -16.24421  -13.24980
       O   -11.74670  -15.85329  -13.15921
      H1   -11.36935  -15.40856  -13.89942
       H   -17.30084  -15.98925   -7.41926
       O   -16.93715  -16.43035   -8.19637
      H1   -16.55926  -15.69279   -8.67511
       H   -10.66967  -13.77862   -7.22002
       O   -10.02321  -13.09210   -7.28034
      H1    -9.80058  -12.87139   -6.36959
       H   -14.24242  -10.30630  -12.65853
       O   -14.59528  -10.87338  -13.37718
      H1   -15.02705  -10.23509  -13.92376
       H    -8.91519  -17.60144   -5.71370
       O    -8.27947  -16.86507   -5.48474
      H1    -7.78340  -16.66597   -6.33520
       H    -8.10020  -12.37903  -14.55757
       O    -8.93726  -12.20516  -15.04283
      H1    -8.66992  -12.19589  -15.99811
       H    -5.37923  -16.13237   -7.40112
       O    -6.11380  -16.76222   -7.60910
      H1    -6.69782  -16.30143   -8.26341
       H   -13.87412  -12.04040  -12.31854
       O   -13.68836  -12.70470  -11.59112
      H1   -12.77026  -12.60667  -11.39713
       H   -12.64120   -9.83317   -8.09978
       O   -12.71828   -8.95373   -8.57687
      H1   -13.35540   -8.50033   -8.00097
       H   -10.11812  -19.17690   -9.04563
       O    -9.55290  -18.89398   -8.27514
      H1    -8.65993  -19.23527   -8.46971
       H    -5.70921  -11.81699  -13.85056
       O    -6.49877  -11.91748  -13.28905
      H1    -6.70570  -11.10171  -12.84613
       H   -14.11824  -13.42454  -15.75692
       O   -14.93281  -13.94297  -15.56999
      H1   -15.58163  -13.30101  -15.25929
       H   -14.90960  -19.16606  -10.86990
       O   -15.43676  -19.91319  -11.07301
      H1   -16.33574  -19.57979  -11.25609
       H   -10.43980  -11.50726  -11.93843
       O   -10.92054  -11.92478  -11.17992
      H1   -10.73754  -12.92707  -11.20072
       H   -15.23064  -13.98206  -12.18045
       O   -15.64386  -14.70501  -12.75940
      H1   -15.43181  -14.55538  -13.68561
       H   -12.79091  -18.95299  -10.27480
       O   -13.57627  -18.43327   -9.97976
      H1   -13.59286  -17.60255  -10.43413
       H    -7.80613  -15.58049  -10.43599
       O    -7.60119  -15.53112   -9.50242
      H1    -8.45368  -15.86685   -9.09164
       H   -10.77882  -17.39606  -12.87003
       O   -10.17724  -18.12683  -12.59392
      H1    -9.32813  -17.67831  -12.64209
       H   -12.61990  -15.33244   -6.29478
       O   -11.67031  -15.34377   -6.55224
      H1   -11.08325  -15.36347   -5.82205
       H   -11.60100  -11.81968   -7.64354
       O   -12.37579  -11.25968   -7.50902
      H1   -13.15902  -11.69517   -7.82609
       H   -15.43317  -12.80482   -8.47029
       O   -15.11526  -12.00454   -7.97632
      H1   -15.95613  -11.55492   -8.05418
       H    -6.84529  -11.11569   -6.96691
       O    -6.39325  -11.92109   -7.32330
      H1    -6.63793  -11.97511   -8.29842
       H   -14.39707  -17.60373  -13.50425
       O   -14.08590  -16.91063  -12.93159
      H1   -14.75241  -16.23293  -12.90051
       H   -15.07817  -14.41536   -9.67034
       O   -15.91298  -14.08263   -9.40855
      H1   -16.29297  -13.53381  -10.13996
       H    -7.35214  -13.46264   -9.88708
       O    -7.10676  -12.51355   -9.93477
      H1    -7.90789  -12.07281   -9.65819
       H   -13.02777  -15.26378  -10.19723
       O   -13.88063  -15.60930   -9.93188
      H1   -13.72923  -16.04591   -9.06335
       H   -14.55927  -13.38825   -6.51206
       O   -14.03335  -14.03032   -5.88806
      H1   -13.75064  -13.47521   -5.15322

