123
frame 5 | Written by MDAnalysis XYZWriter (release 2.4.3)
       H   -15.43180   -5.68822    9.89109
       O   -16.06982   -6.41615    9.89469
      H1   -16.97549   -5.95128    9.78175
       H   -16.10602    4.81203    6.71242
       O   -15.50830    4.07896    6.95565
      H1   -15.22757    4.12281    7.89250
       H   -13.37202    3.56533   12.79918
       O   -12.93242    2.88202   12.33256
      H1   -12.25074    2.41710   12.82788
       H   -16.72230   -4.97515   12.85092
       O   -16.08769   -4.29462   13.07863
      H1   -16.35139   -4.06868   13.99145
       H   -17.29853    2.65182    7.23326
       O   -17.97790    2.17860    7.70854
      H1   -18.43288    2.71636    8.34552
       H   -14.02301   -1.16399   15.72403
       O   -13.12541   -0.97987   15.38395
      H1   -13.10015   -1.72375   14.73848
       H   -15.54812    3.94688   10.23893
       O   -14.93516    4.04571    9.46600
      H1   -14.57644    3.16429    9.43099
       H   -19.39635    5.89876   15.48016
       O   -18.82734    5.24254   15.92003
      H1   -18.56137    4.53759   15.37497
       H   -19.32429    1.22151    4.31626
       O   -18.38521    1.41102    4.11607
      H1   -18.34616    2.34988    4.26495
       H   -16.36418   -2.84956   12.05247
       O   -16.44588   -2.01811   11.56613
      H1   -17.40417   -1.91297   11.45953
       H   -18.00052    2.50051   14.31279
       O   -17.81441    3.41041   14.06474
      H1   -17.15175    3.34064   13.40996
       H   -17.02125   -7.67439   11.57482
       O   -17.80450   -7.99964   12.00357
      H1   -18.39985   -8.03806   11.23240
       H   -13.64178   -3.86253   10.42821
       O   -14.59755   -4.14802   10.52596
      H1   -15.17131   -3.40069   10.31988
       H   -17.72534   -6.28500   14.61257
       O   -18.40649   -5.86965   14.11291
      H1   -18.49985   -6.36765   13.29021
       H   -16.15542    1.47246   12.58620
       O   -16.41951    2.03514   11.86954
      H1   -16.81642    1.51147   11.19955
       H   -17.99257    0.78331    8.99397
       O   -17.94481    0.21065    9.78513
      H1   -17.77259   -0.69946    9.42540
       H   -19.04280   -2.26991   15.37954
       O   -18.42170   -3.01501   15.39641
      H1   -18.56088   -3.55236   16.23956
       H   -13.48181    2.02807   10.77167
       O   -13.56341    1.53106    9.90530
      H1   -13.49242    0.63691   10.13273
       H   -19.46416   -5.32722   17.57791
       O   -18.83263   -4.57040   17.59477
      H1   -18.70747   -4.48801   18.56812
       H   -16.36303   -0.75132   12.77769
       O   -16.14808   -0.17346   13.55984
      H1   -16.00034   -0.82934   14.25557
       H   -17.73433   -1.81268    7.92307
       O   -17.19049   -2.22972    8.61477
      H1   -16.26577   -2.25274    8.28161
       H   -13.84844   -1.12945    9.00585
       O   -13.37284   -1.13939    8.18942
      H1   -12.77282   -1.91965    8.28863
       H   -17.37338    1.28392   18.96694
       O   -17.69348    0.54823   19.56353
      H1   -18.12442   -0.12143   18.97975
       H   -13.20454   -1.54676   11.73664
       O   -13.82017   -1.30523   11.04470
      H1   -14.72863   -1.42078   11.39137
       H   -19.68381   -2.03437    7.02364
       O   -19.10613   -1.28936    7.13019
      H1   -18.70409   -1.23125    6.25355
       H   -13.68616   -6.19348   16.69231
       O   -14.14900   -5.52270   16.19827
      H1   -15.00748   -5.90321   16.13068
       H   -16.73681   -7.32443   16.68214
       O   -16.73559   -6.50670   16.16371
      H1   -17.30892   -5.85295   16.60584
       H   -12.90458   -3.59630   13.46304
       O   -12.23966   -2.87954   13.33980
      H1   -11.66581   -3.25407   12.65096
       H   -19.93180    6.22211   11.09564
       O   -19.23795    6.87488   11.13571
      H1   -19.36414    7.29873   12.07110
       H   -17.27730   -0.32321    4.48834
       O   -17.32665   -1.08682    5.07459
      H1   -17.28761   -1.83631    4.43931
       H   -15.46300   -2.73926   16.58976
       O   -15.70488   -2.43503   15.65374
      H1   -16.63489   -2.58543   15.61923
       H   -19.29937   -4.77923    9.76864
       O   -18.39664   -4.93294    9.52627
      H1   -18.20048   -4.11342    9.05499
       H   -19.69564   -1.15837   11.94718
       O   -19.06536   -1.85412   12.14659
      H1   -19.22530   -1.94749   13.10443
       H   -15.82003    4.80180   16.47907
       O   -15.56045    4.23647   15.74590
      H1   -16.32208    3.98702   15.18589
       H   -15.86195    2.65883   16.57968
       O   -16.42966    1.86753   16.74335
      H1   -15.71297    1.24845   16.93110
       H   -13.86191   -5.20155    7.47800
       O   -14.24415   -4.84105    6.69220
      H1   -14.44547   -3.88698    6.76574
       H   -18.51630   -5.71811    5.54267
       O   -19.43726   -5.59630    5.64790
      H1   -19.87395   -5.89929    4.82316
       H   -17.71229    1.25461   15.77564
       O   -18.23104    0.90537   15.03415
      H1   -17.57432    0.44963   14.47055
       H   -15.75961   -1.73997    5.86869
       O   -15.15234   -2.07925    6.49918
      H1   -14.44093   -1.45253    6.56917
       H   -13.68776   -5.57625   14.31051
       O   -13.67602   -5.23457   13.39639
      H1   -14.54308   -4.89782   13.14740
       H   -11.43447    1.32533   14.34503
       O   -11.31839    0.92162   13.43543
      H1   -12.16421    0.49846   13.38411

