123
frame 10 | Written by MDAnalysis XYZWriter (release 2.4.3)
       H    14.01374  -13.30020    4.27157
       O    13.22865  -13.05821    3.79167
      H1    12.71760  -13.87582    3.73241
       H     7.90423  -12.88466    6.02997
       O     8.46395  -13.66905    6.21475
      H1     8.21519  -13.89379    7.13013
       H    12.71716   -7.17146   10.13162
       O    11.86248   -6.74941   10.26733
      H1    11.90189   -6.31551   11.14722
       H    13.20089  -14.81031   11.91222
       O    12.54410  -14.89637   11.16804
      H1    11.94813  -15.51952   11.62216
       H     5.16935   -7.99765    9.86546
       O     5.85542   -7.92663   10.59748
      H1     6.40801   -8.73186   10.46810
       H     8.58227  -13.32124   12.55350
       O     9.31802  -13.86475   12.93512
      H1     8.93244  -14.32676   13.70155
       H     8.39161   -9.30029    6.97532
       O     7.84352   -8.88802    6.25219
      H1     8.46605   -8.27310    5.71804
       H     7.23985  -10.96218   10.54813
       O     7.07039  -10.22365    9.87158
      H1     7.92037  -10.22846    9.31226
       H     5.04997   -7.48671    6.25466
       O     5.56503   -7.17678    6.99591
      H1     6.40163   -7.58753    6.88212
       H     7.49053  -15.19957    5.34860
       O     7.11066  -15.96447    4.89519
      H1     7.76673  -15.98124    4.17157
       H    14.98249   -8.27340    9.83538
       O    14.18061   -8.10405    9.29880
      H1    14.38042   -7.23885    8.90640
       H    11.30452   -8.99108    6.27005
       O    11.52517   -9.90820    6.15563
      H1    12.43169   -9.91136    6.46669
       H    14.73100  -11.86829   10.29486
       O    14.11547  -12.17570    9.61187
      H1    13.18841  -12.10324    9.97764
       H     8.46750  -14.30277    2.94213
       O     8.68805  -15.17862    2.59824
      H1     9.65750  -15.16304    2.64316
       H     9.05980   -9.59266   13.01880
       O     9.17761   -8.67340   12.73981
      H1     9.53043   -8.71332   11.82994
       H    11.63478  -11.82321    3.68219
       O    11.06651  -11.08561    3.74782
      H1    11.33703  -10.61056    4.54452
       H    14.14174   -9.60576    7.88271
       O    13.87430  -10.33607    7.27942
      H1    13.66832  -11.05537    7.87989
       H     6.18497  -11.33278    9.00640
       O     5.61491  -12.03525    8.60927
      H1     6.04437  -12.86398    8.69485
       H     7.63888   -6.07960    6.47530
       O     8.07746   -5.62021    7.22677
      H1     8.98486   -5.96646    7.26959
       H     8.12687  -16.02138   11.18917
       O     8.89763  -15.50333   10.84530
      H1     9.05514  -14.83038   11.56341
       H     7.67929  -10.37634    5.61520
       O     7.38963  -11.16051    5.12312
      H1     8.08117  -11.34567    4.45632
       H     6.82264   -6.62973    9.89488
       O     7.15169   -5.70806    9.75786
      H1     7.26580   -5.64119    8.80012
       H     7.82639  -12.36964    2.50264
       O     8.49189  -12.67439    3.17501
      H1     9.30730  -12.65086    2.65765
       H    10.94887  -11.71564   11.54091
       O    11.18270  -10.91191   12.09933
      H1    12.09025  -10.59784   11.77658
       H    10.44503   -9.98711   10.85092
       O    10.18247   -9.20204   10.34771
      H1    10.97537   -8.63817   10.29011
       H    14.40632  -13.56157    8.02921
       O    14.65396  -13.84851    7.10312
      H1    14.48253  -14.76997    6.97298
       H     5.33438  -11.78889    5.70276
       O     4.59325  -12.15499    6.18551
      H1     4.95817  -12.20457    7.12274
       H     7.81665   -6.65900    3.85555
       O     8.54277   -6.85874    4.53895
      H1     9.34281   -7.04315    3.96675
       H     7.53747  -12.02486   12.54238
       O     7.47924  -12.43876   11.64406
      H1     6.67161  -12.97552   11.69522
       H    12.33414  -15.42979    6.83980
       O    11.61579  -15.30907    7.48648
      H1    11.42186  -14.37179    7.51727
       H    11.40920   -6.94965    5.94606
       O    11.21706   -7.44397    5.15290
      H1    12.11496   -7.43297    4.73142
       H    13.53169   -9.80584   12.76955
       O    13.74446  -10.20424   11.91872
      H1    13.69055   -9.44461   11.30511
       H    11.20812  -12.68794    9.06644
       O    11.49903  -12.56394   10.03141
      H1    11.72892  -13.48186   10.30894
       H     4.55788  -10.59319    2.94064
       O     5.28358   -9.94790    3.08984
      H1     5.96955  -10.34110    3.68313
       H    10.32591  -10.39568    0.73247
       O    11.09485  -10.05963    1.18944
      H1    11.00983  -10.44778    2.11197
       H    10.93000   -5.13178    7.76177
       O    10.81499   -6.11557    7.67423
      H1    11.03201   -6.37367    8.56936
       H     6.78210  -15.02561    8.69745
       O     7.37935  -14.24450    8.81752
      H1     7.90333  -14.57207    9.54016
       H     3.14402  -12.17744   11.10147
       O     4.05535  -11.93982   10.93586
      H1     4.26518  -12.07509    9.99805
       H     8.86020  -17.14750    7.86254
       O     9.68124  -17.65671    7.67639
      H1    10.33999  -16.88641    7.68973
       H    10.14985  -13.21849    6.92387
       O    10.83188  -12.78922    7.51706
      H1    11.05607  -11.93650    7.10424
       H     9.62200   -9.82158    8.89572
       O     9.16593  -10.29805    8.15733
      H1     9.83240  -10.91316    7.79518

