123
frame 11 | Written by MDAnalysis XYZWriter (release 2.4.3)
       H    18.80830    4.30838   -7.13786
       O    19.31748    3.48077   -7.10942
      H1    19.01197    2.90231   -7.79317
       H    15.86570    8.41740   -5.83569
       O    15.95158    9.23752   -6.40078
      H1    15.12775    9.74502   -6.22721
       H    13.25902   10.16049  -13.11401
       O    13.40250   11.05392  -13.19993
      H1    13.97084   11.36646  -12.51549
       H    11.94823    5.11173   -7.65022
       O    11.31150    4.99653   -6.90761
      H1    11.80482    5.10613   -6.04855
       H    14.90401   11.42887   -2.98198
       O    14.65077   12.31663   -3.23268
      H1    13.72813   12.21652   -3.60624
       H    14.19755   13.44342   -9.49284
       O    14.59725   14.29215   -9.70622
      H1    13.82291   14.80940   -9.99022
       H    15.31354   13.31650  -10.81324
       O    15.70961   12.69963  -11.45819
      H1    16.62605   12.65625  -11.14249
       H    15.23898    7.90154   -8.01411
       O    14.39622    8.00580   -8.46856
      H1    13.94811    8.70755   -8.00024
       H    18.65122   10.00028   -3.33850
       O    18.16706   10.26919   -2.56185
      H1    18.71217   10.89622   -2.07359
       H    14.98337    2.72860   -5.63631
       O    14.65844    2.79520   -4.72804
      H1    14.10885    3.55196   -4.69755
       H    12.38123    8.87501   -4.56043
       O    11.98875    9.01909   -3.70932
      H1    11.02813    8.97356   -3.86883
       H    13.01923    4.08227  -11.37339
       O    13.97649    4.31302  -11.45556
      H1    14.24597    4.05310  -12.35245
       H    19.40028   10.10584   -9.73519
       O    18.99550    9.36891  -10.26613
      H1    18.03767    9.46873  -10.10137
       H    18.18852    6.86656   -4.53623
       O    17.76839    6.45629   -3.75729
      H1    17.64089    5.51232   -3.90938
       H    12.84669   11.11698   -9.80949
       O    13.72043   11.44173   -9.63386
      H1    13.67313   11.64130   -8.72991
       H    14.24773    7.76144  -13.21013
       O    13.34570    7.99427  -12.97281
      H1    13.23820    7.81764  -12.05138
       H    19.07253    9.94498   -5.59527
       O    18.50346   10.37728   -6.23274
      H1    17.72572    9.83469   -6.30286
       H    12.04831   12.08609   -3.27445
       O    12.06315   11.71578   -4.17725
      H1    12.07529   10.73308   -4.06140
       H    10.49092   10.41712   -8.83099
       O    10.96817   10.58027   -9.67019
      H1    10.90569    9.68870  -10.09900
       H    14.01025   13.40457   -7.01760
       O    13.33863   12.71880   -7.04709
      H1    12.55040   13.24623   -7.24120
       H    18.84544   11.09921  -11.11087
       O    18.69855   12.03976  -11.08410
      H1    19.43348   12.46651  -11.57249
       H    18.59513    5.19579  -11.57075
       O    19.55029    4.96657  -11.65733
      H1    19.75922    4.68581  -12.55241
       H     9.90314    8.81773   -6.18170
       O    10.45939    8.70133   -6.97441
      H1     9.81420    8.34500   -7.63888
       H    16.12499    8.56965  -11.73026
       O    16.28263    7.80693  -12.31374
      H1    16.50022    8.16816  -13.18330
       H    12.62005    4.96205   -3.66127
       O    13.02904    4.84763   -4.50463
      H1    13.80599    5.46770   -4.52229
       H    16.60649    3.45202   -4.31893
       O    17.30981    3.71947   -3.70308
      H1    18.17639    3.59149   -4.11462
       H     8.12679    6.21195   -6.37520
       O     8.53114    5.61954   -7.02225
      H1     9.50948    5.69644   -6.94163
       H     8.76935    6.60571   -8.34098
       O     9.00685    7.31810   -8.96034
      H1     8.26651    7.95843   -8.89265
       H    10.68698    8.08100  -11.79983
       O    11.18935    8.08232  -10.92967
      H1    10.63653    7.58040  -10.30475
       H    17.29281    2.93597  -11.23485
       O    17.53704    2.03484  -11.51132
      H1    16.75182    1.65803  -11.91909
       H    15.58776    9.11725   -9.73280
       O    16.21893    9.74842  -10.21382
      H1    15.79775   10.64841  -10.12484
       H    17.12224    5.85649   -7.10820
       O    18.01889    6.17018   -6.76729
      H1    18.49541    6.63335   -7.49672
       H    12.78562   10.60478   -6.36649
       O    13.09913    9.68129   -6.60138
      H1    12.28193    9.25743   -6.84490
       H    15.77815    1.98934   -8.36902
       O    16.06969    2.10917   -7.38788
      H1    16.72171    1.41284   -7.15993
       H    16.08897    3.81430   -7.21361
       O    15.80047    4.75001   -7.29246
      H1    14.93246    4.73925   -7.74286
       H    16.32182    9.85945   -2.03222
       O    15.36906    9.94961   -1.88077
      H1    15.15459    9.09452   -1.40370
       H    15.89245    6.85611   -3.93539
       O    15.24632    7.53338   -4.33332
      H1    15.45969    8.32788   -3.80415
       H    13.76314    1.79946   -9.43449
       O    14.62196    2.05973   -9.90868
      H1    14.38742    2.93176  -10.22171
       H    13.81521    6.33703   -8.67746
       O    13.53474    5.44175   -8.78177
      H1    13.70385    5.07543   -9.65366
       H    16.58764    5.99399  -11.59923
       O    16.93870    5.06351  -11.58534
      H1    17.18037    4.91971  -12.52968
       H    17.84282   11.99494   -6.14435
       O    17.75004   12.94343   -6.16872
      H1    18.07743   13.24987   -7.04541

