123
frame 11 | Written by MDAnalysis XYZWriter (release 2.4.3)
       H    -6.67884  -10.62094    0.43964
       O    -6.32785  -11.45836    0.32915
      H1    -6.45348  -11.68433   -0.64814
       H    -0.07087  -17.12007    2.70943
       O     0.75396  -17.57527    2.86611
      H1     1.47946  -16.92585    2.77144
       H    -5.13637  -18.08579   -3.18414
       O    -4.24211  -18.42197   -3.29986
      H1    -3.80040  -17.88504   -3.95421
       H    -5.50864  -16.50673    6.36820
       O    -5.91015  -17.20487    5.86951
      H1    -5.50285  -17.15480    4.97478
       H    -8.36338  -17.88158    3.92725
       O    -7.57952  -18.39224    3.69738
      H1    -7.71341  -19.24197    4.17926
       H    -8.06663  -16.30771    7.04053
       O    -9.00207  -16.67530    6.97990
      H1    -9.38856  -16.17175    7.69296
       H    -5.14898  -10.06622    3.85510
       O    -4.34362  -10.62892    3.69724
      H1    -3.64058  -10.31091    4.25430
       H    -1.01802  -13.08724    4.71693
       O    -0.57414  -12.45427    5.26185
      H1     0.26736  -12.16432    4.97254
       H   -10.55803  -18.90919   -0.43699
       O   -11.31051  -18.66335    0.08236
      H1   -10.95528  -18.23251    0.80640
       H    -1.87694  -15.51915    9.14814
       O    -1.86870  -14.73624    8.57511
      H1    -2.54729  -14.54416    7.87029
       H   -11.23430  -16.24641    2.93954
       O   -10.32638  -16.44229    2.82471
      H1    -9.93264  -15.93225    2.08645
       H   -10.63826  -17.74911    4.45533
       O   -10.29570  -18.19563    5.23521
      H1   -10.00607  -17.39599    5.79318
       H    -6.15591  -17.50159    3.21092
       O    -5.34107  -16.95626    3.07395
      H1    -5.51436  -16.05365    3.21713
       H    -4.18918  -12.32226    2.41751
       O    -4.00489  -13.26132    2.33051
      H1    -4.35248  -13.46993    1.45815
       H    -2.47607  -17.44088    4.55209
       O    -2.80624  -18.08017    5.13853
      H1    -2.15803  -18.10668    5.85837
       H    -3.93324  -18.89951    8.82505
       O    -3.88111  -18.91609    9.78892
      H1    -3.07683  -18.40907    9.97369
       H    -1.44625  -14.52578   -0.65736
       O    -2.28372  -14.13330   -0.86600
      H1    -2.24819  -13.59744   -1.67586
       H    -6.61092  -18.12473   -4.07510
       O    -6.77262  -17.65033   -3.27929
      H1    -6.65058  -16.72157   -3.44627
       H    -3.67241  -12.95075    7.16649
       O    -3.69996  -13.85153    6.74415
      H1    -4.36254  -14.33819    7.21590
       H    -7.66157  -14.71438    3.67105
       O    -7.00203  -14.85538    4.32793
      H1    -7.10092  -15.69979    4.72104
       H    -9.14968  -19.44189    8.64336
       O    -8.42817  -18.78511    8.60301
      H1    -8.71469  -18.17944    7.88557
       H    -4.96625  -19.57907   -1.57885
       O    -5.60288  -19.59075   -0.89587
      H1    -5.53830  -18.75836   -0.35857
       H     0.24822  -15.11490    0.85353
       O    -0.15799  -15.60209    0.14274
      H1     0.43890  -15.55758   -0.65251
       H    -1.33153  -10.49523    1.12367
       O    -0.79124  -11.25324    1.29624
      H1    -1.35093  -11.99684    0.88983
       H    -2.46216  -16.52998    2.23865
       O    -1.82449  -16.55904    2.92438
      H1    -1.93754  -15.74747    3.46659
       H    -5.30746  -14.97544   -3.15733
       O    -6.05981  -14.98250   -2.55931
      H1    -5.70622  -14.91921   -1.66231
       H    -3.41931  -18.08744    0.60109
       O    -4.20803  -17.43924    0.60448
      H1    -4.52908  -17.47469    1.51786
       H    -1.40485  -19.19902    0.07865
       O    -2.24441  -19.51257    0.46403
      H1    -2.12243  -19.84325    1.33461
       H    -4.35039  -11.43430    0.01423
       O    -3.44878  -11.59438   -0.22120
      H1    -3.41241  -12.56199   -0.32075
       H    -0.31908  -17.89769    6.86297
       O    -1.08503  -18.13066    7.37325
      H1    -0.99050  -19.04741    7.59897
       H    -5.30558  -15.45919    0.47979
       O    -5.45394  -14.59441    0.14916
      H1    -6.17165  -14.21714    0.73750
       H    -3.04413  -17.52593   -2.25905
       O    -2.20146  -17.21579   -1.98554
      H1    -2.34945  -16.39545   -1.55026
       H    -6.00073  -14.42696    8.40206
       O    -5.73431  -15.28900    8.10811
      H1    -5.47772  -15.62890    8.96695
       H    -7.63525  -12.94236    1.57713
       O    -8.03173  -13.76992    1.85834
      H1    -8.25897  -14.25650    1.04960
       H    -8.89385  -16.68463   -0.08745
       O    -9.12449  -15.88866    0.37257
      H1    -9.90712  -15.57692   -0.03939
       H     0.78938  -18.53777    1.18336
       O     0.66117  -19.18141    0.42723
      H1     1.10257  -19.97404    0.77375
       H     0.39878  -16.31181    5.96943
       O     0.68992  -17.23649    5.71761
      H1     0.60098  -17.42446    4.71417
       H    -2.66450  -13.94775    3.59797
       O    -2.22956  -14.35018    4.41419
      H1    -2.90864  -14.16043    5.12784
       H    -8.10128  -19.09976   -0.62739
       O    -8.41994  -18.26105   -0.96911
      H1    -7.86199  -18.06385   -1.74212
       H    -6.67050  -12.77160    5.33332
       O    -6.96444  -12.32210    6.11446
      H1    -7.89050  -12.61040    6.19296
       H    -4.61968  -18.74245    6.58758
       O    -4.56173  -19.45258    7.24953
      H1    -3.85341  -20.04532    6.90325

