123
frame 2 | Written by MDAnalysis XYZWriter (release 2.4.3)
       H    14.66793  -12.69170    3.94983
       O    13.85533  -12.50521    3.39226
      H1    13.17457  -13.16875    3.70653
       H     9.49510  -18.99765   -3.28147
       O     8.79336  -19.34995   -3.86401
      H1     8.45350  -20.02382   -3.29016
       H    10.19223  -13.14905    0.37177
       O     9.24487  -12.90501    0.53747
      H1     9.14828  -12.14092   -0.01915
       H    11.06149  -14.01108    3.53510
       O    11.77213  -14.41027    4.09271
      H1    11.78520  -15.34818    3.85289
       H    13.13586  -16.24009   -2.83023
       O    13.29836  -15.86674   -3.66807
      H1    14.19663  -16.18324   -3.80994
       H     9.47671  -14.08818    5.95495
       O    10.30646  -14.13020    6.36940
      H1    10.97115  -14.38967    5.68871
       H     9.05416  -17.74179    1.60952
       O     9.31915  -16.81243    1.79708
      H1     9.25260  -16.78909    2.73106
       H     2.79869  -15.18037    1.38735
       O     2.75478  -15.73137    2.15329
      H1     3.49882  -16.31855    2.10416
       H     8.39106  -14.06730   -0.30873
       O     7.89049  -14.54412   -0.95692
      H1     8.01423  -14.05254   -1.81889
       H     7.82122  -11.13227   -1.16903
       O     8.67835  -10.78843   -0.90094
      H1     9.24459  -10.94884   -1.67747
       H     9.71299  -18.18591   -0.60839
       O     9.08179  -18.60232   -0.05820
      H1     8.25856  -18.49796   -0.54661
       H     5.72157  -11.67377    2.28222
       O     5.89731  -12.62125    2.58160
      H1     5.68694  -13.11213    1.77934
       H     7.62596  -17.89662   -4.05808
       O     7.37160  -16.96947   -4.03749
      H1     8.10719  -16.44946   -4.36723
       H     3.92746  -13.36297   -0.78938
       O     4.05190  -13.42069    0.16329
      H1     3.59110  -12.62338    0.43960
       H    13.87838  -18.41544   -2.21329
       O    13.67709  -17.67497   -1.64189
      H1    13.54288  -17.90154   -0.72215
       H    12.86479  -13.05849    0.44250
       O    11.98986  -13.09619   -0.01020
      H1    11.82256  -13.99190   -0.37256
       H     5.28790  -18.14422    1.62320
       O     4.80325  -17.36666    1.64056
      H1     5.57465  -16.79795    1.86874
       H     7.66917  -15.87273    1.63136
       O     6.81126  -15.37663    1.56417
      H1     6.83373  -15.07109    0.69572
       H     9.28310  -10.39963    3.17510
       O     9.47775  -10.70228    4.09104
      H1    10.48787  -10.77349    4.09453
       H     6.38508  -15.87491   -1.30692
       O     5.84811  -16.76372   -1.48658
      H1     6.22017  -17.05205   -2.30509
       H    10.49924  -17.60804   -5.32248
       O    10.49231  -16.96778   -4.61798
      H1    11.27445  -16.46137   -4.69328
       H     9.60585  -17.55817    8.39785
       O     9.55123  -18.14180    9.20091
      H1     8.85269  -17.82059    9.76991
       H     4.20192  -17.51151    5.32523
       O     3.63587  -18.05298    5.89083
      H1     2.83904  -17.50504    5.85020
       H    15.94270  -15.84145    3.79575
       O    15.11759  -15.27084    3.70378
      H1    15.25865  -14.59783    4.42093
       H    11.26723  -18.77505   -2.25514
       O    10.67847  -18.02738   -2.28480
      H1    10.50684  -17.74899   -3.21984
       H    10.80665  -16.56200   -1.15912
       O    10.90343  -15.68681   -0.77730
      H1     9.94455  -15.49472   -0.45898
       H    12.91087  -18.96815    1.23388
       O    13.39789  -18.13529    0.97349
      H1    14.35914  -18.34441    1.17507
       H     2.59531  -17.28304   -2.39052
       O     3.04206  -16.38820   -2.21720
      H1     3.94079  -16.50767   -1.99369
       H    11.54586  -18.57360    3.75221
       O    11.36991  -19.52446    3.81439
      H1    11.68661  -19.83369    4.68202
       H    13.93824  -18.27398    4.69672
       O    14.31798  -18.90934    5.31392
      H1    13.70472  -18.84767    6.07807
       H     7.92129  -13.81583    4.95372
       O     7.58853  -14.23571    5.78208
      H1     6.99680  -14.84361    5.32048
       H    17.28110  -15.76131    1.52909
       O    16.36712  -15.90694    1.40490
      H1    15.89966  -15.45686    2.14603
       H     6.43548  -17.06119    6.37094
       O     6.24072  -16.74500    5.50083
      H1     7.10816  -16.70046    5.05045
       H     3.44562  -13.78718    4.61206
       O     3.22810  -14.72750    4.60143
      H1     3.09782  -14.86014    3.61452
       H     1.58892  -17.42957    0.21668
       O     2.39824  -18.02412   -0.01788
      H1     3.21363  -17.46168    0.13760
       H    13.01800  -17.11184    2.63298
       O    12.98593  -17.07546    3.64450
      H1    13.62187  -16.40063    3.78959
       H     8.86143  -12.35255    3.73302
       O     8.86873  -13.30842    3.54004
      H1     8.30049  -13.37252    2.75723
       H     8.39320  -17.95028    4.46817
       O     8.77068  -17.11176    4.59816
      H1     9.19762  -17.14748    5.48047
       H     9.95338  -15.81733    6.96228
       O    10.12334  -16.76327    6.95822
      H1    11.05994  -16.86833    7.22196
       H    11.43734  -12.48652   -1.60457
       O    10.86442  -12.20531   -2.29555
      H1    11.11077  -12.65472   -3.11158
       H     6.51030  -14.02770    7.40191
       O     5.90099  -14.12903    8.17210
      H1     5.57928  -15.04691    8.20334

