123
frame 8 | Written by MDAnalysis XYZWriter (release 2.4.3)
       H    14.84892    6.91680   -6.67467
       O    13.89441    7.06375   -6.52053
      H1    13.81909    7.94472   -6.09685
       H    12.88735    9.88878  -13.75606
       O    13.32887   10.29037  -14.51508
      H1    13.87551   10.95258  -14.11358
       H    16.93411   14.38694  -16.33311
       O    16.78030   14.48098  -15.32035
      H1    16.26617   13.75097  -15.02929
       H    18.72952    5.37808   -9.80115
       O    19.39508    5.89526  -10.19929
      H1    19.01015    6.13139  -11.03782
       H    16.99138   14.18513   -4.26056
       O    16.02477   14.18641   -4.04069
      H1    15.67523   13.28570   -4.06508
       H    17.29108   16.43609   -6.85353
       O    17.73471   17.06428   -6.29346
      H1    17.03912   17.33766   -5.64197
       H    19.46833   16.86988  -11.55941
       O    19.27106   17.77299  -11.20970
      H1    19.43893   17.76714  -10.27996
       H    15.98757   11.24699   -3.83563
       O    15.69063   11.56822   -4.69290
      H1    15.00241   10.91585   -4.93610
       H    13.10041   11.94591  -11.19593
       O    13.62783   12.57802  -11.67801
      H1    13.06758   13.37969  -11.63988
       H    15.28243   12.01967  -12.01691
       O    16.05084   11.72962  -12.51752
      H1    16.81192   12.21963  -12.19641
       H    13.68763    8.02463   -8.02114
       O    13.87520    8.34334   -8.91674
      H1    13.25318    9.00855   -9.19429
       H    16.62316   16.36414   -8.81493
       O    16.96478   15.57727   -8.36906
      H1    17.76515   15.33481   -8.88255
       H    16.65219   15.97798  -14.02085
       O    16.21557   16.79670  -13.94386
      H1    15.56513   16.73921  -14.68662
       H    13.65587   17.23886  -10.85457
       O    13.39577   16.76432  -10.05438
      H1    13.16029   15.83481  -10.32791
       H    17.58554   10.48559   -8.30016
       O    18.09260   10.26510   -9.13983
      H1    17.33234   10.00232   -9.77838
       H    16.96702    6.62066   -5.72716
       O    16.74959    6.33915   -4.80995
      H1    16.94871    5.38530   -4.78409
       H    11.64734   10.25374  -10.05306
       O    12.60788   10.40231  -10.22381
      H1    12.90899   10.77623   -9.41393
       H    18.27075   13.39506  -15.01167
       O    18.90014   12.77059  -14.62344
      H1    18.67801   11.89601  -15.02071
       H    17.66977   18.24442  -11.48610
       O    16.79910   18.50874  -11.86502
      H1    16.69647   17.87262  -12.63408
       H    16.74352   10.61425  -17.18226
       O    16.54248   11.52898  -17.22185
      H1    17.32217   11.82487  -17.78517
       H    13.59777    7.47064  -13.29068
       O    12.80220    7.87686  -13.05867
      H1    12.16692    7.20059  -12.81925
       H    18.52857   11.15805   -6.08655
       O    17.76878   11.66203   -6.43926
      H1    17.04319   11.48417   -5.85861
       H    15.24882    8.67461  -16.33994
       O    15.40618    9.30285  -15.60298
      H1    14.52405    9.53366  -15.21909
       H    15.47947   11.66865  -15.52458
       O    15.18705   12.33283  -14.89726
      H1    15.59067   11.95961  -14.12760
       H    14.45193   12.05368   -7.86696
       O    13.71885   11.42132   -7.86266
      H1    12.96345   11.86857   -7.50339
       H    18.28754   12.05204  -10.27452
       O    18.16226   12.79713  -10.82998
      H1    18.61882   13.51716  -10.32623
       H    17.29830    6.97757  -12.91314
       O    18.17513    6.59204  -12.71499
      H1    18.05917    5.63313  -12.96119
       H    15.79815    8.24319  -12.55768
       O    15.50464    7.67261  -13.30770
      H1    15.48540    8.29567  -14.08598
       H    14.74572   17.68058   -9.48724
       O    15.71915   17.93320   -9.45163
      H1    16.03624   18.05451  -10.35497
       H    19.48396   15.12786  -10.53598
       O    19.27806   15.14014   -9.59291
      H1    19.69588   15.93787   -9.22912
       H    15.30014    9.09065  -10.61806
       O    16.12821    9.43989  -10.92962
      H1    16.04918   10.17956  -11.58072
       H    15.67817   13.47072   -6.26759
       O    15.21507   13.73901   -7.09045
      H1    15.87784   14.21731   -7.58306
       H    16.79321    6.45109   -8.32678
       O    16.77723    6.96046   -7.53257
      H1    17.54993    7.52880   -7.52268
       H    13.91286   10.18170   -6.55869
       O    13.97925    9.82471   -5.70546
      H1    13.08788    9.79326   -5.37411
       H    18.51599    5.98453  -16.45172
       O    17.82666    6.19923  -15.85083
      H1    17.97791    7.12636  -15.55792
       H    11.30299   13.86005  -11.15658
       O    11.86722   14.59301  -10.86347
      H1    11.94290   15.14849  -11.68587
       H    18.67903    8.63984   -8.57593
       O    19.01282    7.95060   -8.03763
      H1    19.15206    7.30197   -8.71824
       H    17.51768    9.89542  -14.72073
       O    18.41159    9.76802  -15.02573
      H1    18.29531    9.34761  -15.88552
       H    15.34854    6.01577  -12.38988
       O    15.36063    5.16112  -11.94431
      H1    15.85239    4.64429  -12.65165
       H    18.43829   15.03538   -5.24675
       O    18.73579   14.55048   -4.48382
      H1    18.87341   15.22010   -3.80150
       H    14.10004   15.00342   -6.47550
       O    13.26192   15.45010   -6.60477
      H1    12.68136   15.17096   -5.88347

