123
frame 10 | Written by MDAnalysis XYZWriter (release 2.4.3)
       H     7.90423  -12.88466    6.02997
       O     8.46395  -13.66905    6.21475
      H1     8.21519  -13.89379    7.13013
       H    12.71716   -7.17146   10.13162
       O    11.86248   -6.74941   10.26733
      H1    11.90189   -6.31551   11.14722
       H     5.59117   -8.61904    1.94003
       O     6.08272   -7.87633    1.54173
      H1     5.60576   -7.81480    0.70953
       H     5.16935   -7.99765    9.86546
       O     5.85542   -7.92663   10.59748
      H1     6.40801   -8.73186   10.46810
       H     8.39161   -9.30029    6.97532
       O     7.84352   -8.88802    6.25219
      H1     8.46605   -8.27310    5.71804
       H     7.23985  -10.96218   10.54813
       O     7.07039  -10.22365    9.87158
      H1     7.92037  -10.22846    9.31226
       H     4.52405   -8.43790    3.96303
       O     4.27660   -7.83008    4.61254
      H1     5.00123   -7.16287    4.53181
       H     5.04997   -7.48671    6.25466
       O     5.56503   -7.17678    6.99591
      H1     6.40163   -7.58753    6.88212
       H     2.75683   -5.30442    3.02990
       O     2.63965   -6.23578    2.84300
      H1     3.23891   -6.83365    3.37858
       H     9.53473   -5.43439    4.91252
       O     9.81702   -4.51939    4.84289
      H1    10.58945   -4.61732    4.26599
       H    11.30452   -8.99108    6.27005
       O    11.52517   -9.90820    6.15563
      H1    12.43169   -9.91136    6.46669
       H    10.89790   -4.03999    6.46461
       O    11.20647   -3.45611    7.18989
      H1    12.14466   -3.48756    7.06454
       H     6.28744  -10.78097    1.71243
       O     6.79270  -11.51000    1.36761
      H1     7.37925  -11.04258    0.72465
       H     5.19818   -5.22579    3.41725
       O     5.93401   -5.91720    3.44573
      H1     5.73928   -6.57886    2.75767
       H     9.05980   -9.59266   13.01880
       O     9.17761   -8.67340   12.73981
      H1     9.53043   -8.71332   11.82994
       H     9.10474   -3.14674    4.15810
       O     9.03028   -2.29306    3.63182
      H1     8.10894   -2.04301    3.77539
       H    11.63478  -11.82321    3.68219
       O    11.06651  -11.08561    3.74782
      H1    11.33703  -10.61056    4.54452
       H    10.47498   -7.82618    1.69032
       O     9.77033   -7.24762    1.92900
      H1     9.05184   -7.44955    1.41322
       H     6.18497  -11.33278    9.00640
       O     5.61491  -12.03525    8.60927
      H1     6.04437  -12.86398    8.69485
       H     7.63888   -6.07960    6.47530
       O     8.07746   -5.62021    7.22677
      H1     8.98486   -5.96646    7.26959
       H     7.67929  -10.37634    5.61520
       O     7.38963  -11.16051    5.12312
      H1     8.08117  -11.34567    4.45632
       H     6.82264   -6.62973    9.89488
       O     7.15169   -5.70806    9.75786
      H1     7.26580   -5.64119    8.80012
       H     7.82639  -12.36964    2.50264
       O     8.49189  -12.67439    3.17501
      H1     9.30730  -12.65086    2.65765
       H    10.44503   -9.98711   10.85092
       O    10.18247   -9.20204   10.34771
      H1    10.97537   -8.63817   10.29011
       H     5.33438  -11.78889    5.70276
       O     4.59325  -12.15499    6.18551
      H1     4.95817  -12.20457    7.12274
       H     7.81665   -6.65900    3.85555
       O     8.54277   -6.85874    4.53895
      H1     9.34281   -7.04315    3.96675
       H    11.40920   -6.94965    5.94606
       O    11.21706   -7.44397    5.15290
      H1    12.11496   -7.43297    4.73142
       H     4.45552   -7.99995    8.22387
       O     3.79302   -8.48115    8.78578
      H1     3.23591   -7.68025    9.05774
       H    11.20812  -12.68794    9.06644
       O    11.49903  -12.56394   10.03141
      H1    11.72892  -13.48186   10.30894
       H     4.11729   -8.91136   11.18617
       O     3.79375   -9.48504   11.94539
      H1     3.94563  -10.42758   11.60815
       H     4.76058   -3.64063    5.10519
       O     4.72516   -3.66944    4.15610
      H1     5.44420   -3.12407    3.78472
       H     0.99612   -7.68229    6.15407
       O     1.39463   -8.32322    5.53902
      H1     1.82784   -9.00363    6.12676
       H     3.36688  -10.69283    6.83227
       O     2.55017  -10.24027    7.06123
      H1     2.87888   -9.69601    7.78790
       H     4.55788  -10.59319    2.94064
       O     5.28358   -9.94790    3.08984
      H1     5.96955  -10.34110    3.68313
       H    10.32591  -10.39568    0.73247
       O    11.09485  -10.05963    1.18944
      H1    11.00983  -10.44778    2.11197
       H    10.93000   -5.13178    7.76177
       O    10.81499   -6.11557    7.67423
      H1    11.03201   -6.37367    8.56936
       H     6.78210  -15.02561    8.69745
       O     7.37935  -14.24450    8.81752
      H1     7.90333  -14.57207    9.54016
       H     6.31418   -2.98684    7.31460
       O     6.60319   -2.90357    6.41349
      H1     7.20923   -3.65980    6.22517
       H     3.14402  -12.17744   11.10147
       O     4.05535  -11.93982   10.93586
      H1     4.26518  -12.07509    9.99805
       H    10.14985  -13.21849    6.92387
       O    10.83188  -12.78922    7.51706
      H1    11.05607  -11.93650    7.10424
       H     9.62200   -9.82158    8.89572
       O     9.16593  -10.29805    8.15733
      H1     9.83240  -10.91316    7.79518

