123
frame 10 | Written by MDAnalysis XYZWriter (release 2.4.3)
       H    12.71716   -7.17146   10.13162
       O    11.86248   -6.74941   10.26733
      H1    11.90189   -6.31551   11.14722
       H    14.27511   -7.86987    4.04253
       O    13.49752   -7.59097    3.67813
      H1    13.77352   -7.03574    2.92077
       H    14.98249   -8.27340    9.83538
       O    14.18061   -8.10405    9.29880
      H1    14.38042   -7.23885    8.90640
       H     9.53473   -5.43439    4.91252
       O     9.81702   -4.51939    4.84289
      H1    10.58945   -4.61732    4.26599
       H    11.30452   -8.99108    6.27005
       O    11.52517   -9.90820    6.15563
      H1    12.43169   -9.91136    6.46669
       H    10.89790   -4.03999    6.46461
       O    11.20647   -3.45611    7.18989
      H1    12.14466   -3.48756    7.06454
       H    18.18360   -4.74727    7.25292
       O    17.46715   -4.24880    6.90154
      H1    17.00374   -4.09797    7.73127
       H    16.00750   -1.20245   11.61723
       O    15.83744   -1.26369   10.67444
      H1    15.99894   -2.21812   10.44386
       H    13.48819   -1.21643   11.82892
       O    12.80064   -0.69110   12.27577
      H1    11.95142   -0.74683   11.78959
       H    16.87858   -8.66624    5.18131
       O    15.88744   -8.65015    5.25816
      H1    15.67324   -9.39615    5.85870
       H    11.54047   -4.60691    2.24462
       O    11.84357   -4.45925    3.13585
      H1    12.58083   -4.95265    3.43019
       H    14.14174   -9.60576    7.88271
       O    13.87430  -10.33607    7.27942
      H1    13.66832  -11.05537    7.87989
       H     7.63888   -6.07960    6.47530
       O     8.07746   -5.62021    7.22677
      H1     8.98486   -5.96646    7.26959
       H    15.92890   -3.65538    4.50589
       O    16.41916   -4.46278    4.51031
      H1    17.03805   -4.45679    5.23452
       H    13.88013   -2.58889    7.50986
       O    13.88603   -3.28795    6.83058
      H1    13.97076   -2.77595    6.01432
       H    15.54369   -4.32603    9.50002
       O    16.31714   -3.75512    9.33623
      H1    16.97369   -3.99304   10.04987
       H    16.94837   -0.34851    9.72663
       O    17.64954    0.01492    9.10667
      H1    18.44298   -0.03252    9.59537
       H    16.18793   -3.86685    2.71619
       O    15.85051   -3.62930    1.84375
      H1    16.60200   -3.77211    1.21095
       H    17.39086   -0.79775    5.23582
       O    16.82339   -0.51287    4.46528
      H1    16.88383    0.40158    4.16595
       H    10.44503   -9.98711   10.85092
       O    10.18247   -9.20204   10.34771
      H1    10.97537   -8.63817   10.29011
       H    18.98631   -2.19634    9.70916
       O    19.50719   -2.21285    8.92297
      H1    18.83436   -2.07937    8.21481
       H    19.31268   -4.75222    3.80706
       O    18.62706   -5.36582    3.41536
      H1    17.74840   -4.96351    3.65995
       H    14.33146   -5.06638    7.51633
       O    14.77147   -5.83751    7.92674
      H1    15.46804   -5.98447    7.29999
       H    12.49298   -3.00322    2.57238
       O    12.85026   -2.12397    2.30655
      H1    12.52214   -1.52813    3.02122
       H    11.40920   -6.94965    5.94606
       O    11.21706   -7.44397    5.15290
      H1    12.11496   -7.43297    4.73142
       H    15.52505   -6.83372   11.96686
       O    14.59079   -6.53815   11.88395
      H1    14.52954   -5.80060   12.47413
       H    15.26266   -6.22090    1.00033
       O    14.48620   -5.80570    1.53446
      H1    14.89900   -4.93998    1.79712
       H    17.96053   -2.70004    6.54249
       O    18.41422   -1.84306    6.40511
      H1    19.17766   -1.96539    5.79513
       H    13.53169   -9.80584   12.76955
       O    13.74446  -10.20424   11.91872
      H1    13.69055   -9.44461   11.30511
       H     9.19166   -2.15545    7.60262
       O     8.72438   -1.30870    7.71424
      H1     7.98087   -1.39609    7.11682
       H    19.16042   -8.42832    3.33219
       O    18.63809   -7.97697    4.05636
      H1    18.55563   -7.05540    3.74929
       H    13.04634   -2.44701    9.67535
       O    12.74376   -1.81417    8.99875
      H1    12.07668   -2.23024    8.57678
       H    19.29404   -5.57838    9.51315
       O    19.65374   -5.07362    8.77324
      H1    19.63386   -4.15527    8.98575
       H    15.39252   -1.44263    4.36268
       O    14.76215   -2.21454    4.43991
      H1    14.18744   -2.19017    3.68884
       H    10.93000   -5.13178    7.76177
       O    10.81499   -6.11557    7.67423
      H1    11.03201   -6.37367    8.56936
       H    17.82403   -5.52380   11.90158
       O    17.23001   -4.75915   11.72224
      H1    16.56698   -4.63353   12.42372
       H    12.31744   -3.84363   11.59786
       O    13.25691   -3.46035   11.34631
      H1    13.76647   -3.54036   12.15785
       H    12.64025    1.53955   10.34452
       O    13.58838    1.32670   10.33922
      H1    13.55958    0.37948   10.18794
       H    16.18399   -9.11457   11.30034
       O    16.46612   -8.78180   10.41235
      H1    16.86708   -9.53514   10.05282
       H    19.09674   -7.89690    9.48109
       O    19.04944   -7.44066   10.39302
      H1    18.14656   -7.62099   10.65348
       H    10.13649   -4.83186   12.17000
       O    11.07544   -5.03500   12.35646
      H1    11.07890   -5.19921   13.31305

