123
frame 7 | Written by MDAnalysis XYZWriter (release 2.4.3)
       H   -12.43363   -7.51588   17.86693
       O   -13.33039   -7.93983   17.72779
      H1   -13.90353   -7.49869   18.37920
       H   -12.42957    2.43848   13.51210
       O   -12.35625    1.55385   13.11419
      H1   -11.85929    1.06461   13.79499
       H   -16.87379   -4.81390   13.34111
       O   -16.12176   -4.19312   13.48380
      H1   -16.13767   -4.21314   14.43959
       H   -11.80242    1.34550   18.72098
       O   -11.16826    1.46291   18.02985
      H1   -10.38492    1.52213   18.58030
       H   -13.78761   -2.24388   15.42812
       O   -13.00504   -1.68207   15.30290
      H1   -12.35384   -2.42980   15.33183
       H   -11.19426   -3.79869   17.09413
       O   -11.52243   -4.60625   17.59937
      H1   -11.19803   -5.29716   17.03681
       H   -16.46227   -2.67350   12.53318
       O   -16.25734   -2.18251   11.71400
      H1   -17.09536   -1.70231   11.58353
       H   -16.41040    2.58679   13.62327
       O   -16.43382    3.37630   14.13445
      H1   -15.98196    3.94639   13.51976
       H    -9.03610   -4.30941   19.98548
       O   -10.00027   -4.57615   19.97387
      H1   -10.37086   -4.58024   19.05704
       H   -14.26562   -5.25920   11.47929
       O   -14.50502   -4.58530   10.85918
      H1   -13.75957   -4.56600   10.27736
       H   -17.42764   -6.56527   14.04803
       O   -17.94504   -6.15807   13.39447
      H1   -17.93210   -6.78320   12.65566
       H   -15.25414    1.05235   12.38829
       O   -15.63195    1.82857   11.94563
      H1   -15.93133    1.49239   11.02000
       H   -18.57623   -3.01223   15.43943
       O   -18.78114   -3.82295   15.93871
      H1   -18.53902   -3.62435   16.82343
       H   -12.56650    0.22467   11.31522
       O   -12.24682   -0.09805   10.49305
      H1   -12.97849   -0.56176   10.05921
       H   -18.66207   -5.31601   18.34682
       O   -18.64026   -4.44030   18.74120
      H1   -18.47318   -4.54343   19.65363
       H   -15.17858   -1.29175   12.92711
       O   -14.90138   -0.46997   13.31968
      H1   -13.98374   -0.66304   13.52854
       H   -19.28442   -2.48753   19.09607
       O   -19.20989   -1.51909   19.04322
      H1   -19.95841   -1.26599   19.60160
       H   -13.38867   -7.33455   11.87445
       O   -13.94462   -7.07450   12.60706
      H1   -13.37494   -6.41211   13.11609
       H   -10.26709   -2.62046   19.69549
       O   -10.25215   -1.67918   19.62873
      H1   -10.91218   -1.48362   18.96799
       H   -17.98973   -2.90240    9.96577
       O   -18.07185   -3.19778    9.08350
      H1   -18.75297   -2.58011    8.74489
       H   -16.96062    0.84940   18.64286
       O   -17.64542    0.77932   19.32453
      H1   -18.17528   -0.04191   19.16518
       H   -14.88370   -1.93825    8.65617
       O   -14.81988   -1.34470    9.41052
      H1   -15.06954   -1.88313   10.12889
       H   -16.08412   -8.04465   17.86285
       O   -16.45090   -8.63922   17.17884
      H1   -15.84559   -9.39125   17.11275
       H   -13.74736   -6.70938   16.40309
       O   -14.09295   -5.85462   16.02920
      H1   -15.02097   -5.98704   15.81459
       H   -16.86200   -7.24010   16.13445
       O   -16.80312   -6.29853   15.81084
      H1   -17.68946   -5.97986   15.90925
       H   -11.66134   -3.62918   13.24141
       O   -10.90131   -3.03237   13.25052
      H1   -10.82790   -2.57858   12.41157
       H   -13.55202   -0.84277   18.70060
       O   -12.86175   -1.35634   18.29289
      H1   -12.95766   -1.22940   17.31433
       H   -15.13740   -3.19034   17.02306
       O   -15.22808   -2.94823   16.05278
      H1   -15.69252   -2.09207   15.98161
       H    -9.74998   -2.09361   17.42522
       O   -10.33568   -2.31674   16.74998
      H1    -9.79723   -2.40326   15.92499
       H   -15.15670   -6.53793   19.87489
       O   -15.22938   -6.75288   18.93943
      H1   -15.03891   -5.91653   18.54612
       H   -19.39700   -0.70817   11.15505
       O   -18.84202   -1.46217   11.44120
      H1   -19.00677   -1.61352   12.43561
       H    -8.89970   -4.43922   15.89137
       O    -8.65128   -5.28403   16.37737
      H1    -7.93731   -5.72445   15.86766
       H   -10.26644   -7.42276   17.87370
       O   -10.43331   -7.19316   16.94175
      H1    -9.70838   -6.58742   16.70061
       H   -15.20465    3.49429   16.92573
       O   -14.69598    3.04561   16.25627
      H1   -15.46521    2.98173   15.60555
       H   -18.13335   -1.08436   14.58643
       O   -18.80754   -1.67436   14.26602
      H1   -19.63353   -1.42370   14.68368
       H   -15.12359    1.58178   17.21113
       O   -15.50141    0.81565   17.77445
      H1   -14.73458    0.75986   18.43486
       H   -16.44411    0.09155   16.02069
       O   -16.65287   -0.63746   15.39958
      H1   -16.06118   -0.46389   14.68886
       H   -13.58085   -4.20412   17.85534
       O   -14.24542   -3.84975   18.44390
      H1   -13.83668   -3.01371   18.70857
       H   -13.21169   -4.85110   14.93828
       O   -13.02345   -4.37307   14.09699
      H1   -13.92715   -4.19648   13.84930
       H   -11.19612    0.61614   16.26223
       O   -11.22754    0.39205   15.31061
      H1   -11.92528   -0.31817   15.28748
       H   -15.14933   -9.64618   13.51877
       O   -15.02565   -8.92558   14.12168
      H1   -14.50798   -8.24942   13.62140

