123
frame 9 | Written by MDAnalysis XYZWriter (release 2.4.3)
       H    -9.23078   11.06802   14.21853
       O    -9.52831   11.46350   14.99385
      H1    -8.80337   12.07055   15.27431
       H    -6.68143   17.91969    4.15104
       O    -6.26656   17.06629    4.07976
      H1    -6.32764   16.80281    3.16672
       H    -8.39650   16.00074    8.48758
       O    -8.59340   15.60593    7.60947
      H1    -8.92506   16.36023    7.11218
       H    -5.72035   15.71888   12.64480
       O    -6.03644   15.82020   13.55377
      H1    -6.68290   15.08362   13.69748
       H   -10.24347   16.13486   12.80175
       O    -9.86999   15.34176   12.42985
      H1   -10.62054   14.71267   12.40036
       H    -6.24820   13.29830    8.01420
       O    -6.13880   14.22594    7.78211
      H1    -7.05352   14.60293    7.84224
       H   -13.05819   16.51398    9.43410
       O   -13.87175   16.86762    9.70206
      H1   -13.82508   16.93518   10.65531
       H    -8.94378   17.69685    4.92269
       O    -8.80410   18.47162    5.59016
      H1    -7.95161   18.33912    6.02043
       H    -3.39677   15.66821    8.23087
       O    -2.85911   15.49371    8.99266
      H1    -2.33503   14.61610    8.79126
       H    -8.90990   14.79269   13.86760
       O    -8.25151   14.14203   14.19493
      H1    -8.43813   13.42232   13.64715
       H   -13.21488   14.82229   12.69222
       O   -14.03105   15.29302   12.73489
      H1   -14.41230   15.17826   13.65517
       H    -9.78667   15.40457    4.02151
       O    -9.95646   16.33032    4.24748
      H1   -10.55656   16.22223    4.99240
       H    -5.54510   12.52915   13.23109
       O    -6.25720   12.13590   12.70593
      H1    -5.99330   12.34672   11.78645
       H   -10.64551   16.23744   15.52721
       O   -11.34681   15.59766   15.56978
      H1   -12.05837   16.13774   15.97742
       H   -11.88555   12.76386   13.11629
       O   -11.83279   13.32569   12.32052
      H1   -11.74777   12.75100   11.56556
       H    -8.23113   17.52523   15.18495
       O    -9.18085   17.40204   14.97463
      H1    -9.49645   17.86159   14.16672
       H   -11.99251   14.80321    8.39551
       O   -11.45651   15.55454    8.27389
      H1   -10.60043   15.27628    7.84215
       H    -2.23544   16.20808   11.62944
       O    -1.49636   15.81401   11.23641
      H1    -1.82502   15.63042   10.37140
       H    -2.15142   13.66370    7.13527
       O    -1.59569   13.50171    7.90727
      H1    -0.67551   13.68298    7.72294
       H    -7.20201   15.12201   17.12177
       O    -6.70692   15.80956   17.56693
      H1    -6.42617   16.36977   16.82841
       H    -3.90439   16.92218   11.91919
       O    -3.41915   17.20800   12.73085
      H1    -3.29210   18.19036   12.70654
       H   -12.35463   13.25390    5.96225
       O   -11.49033   13.58324    5.69059
      H1   -10.92424   13.16967    6.42003
       H    -1.52616   19.05473   13.11414
       O    -2.27720   19.63616   12.81576
      H1    -2.36513   20.20717   13.60367
       H    -7.66025    9.53336   13.48064
       O    -8.14163   10.16577   12.97573
      H1    -7.45250   10.80699   12.87823
       H    -4.19568   15.74348   10.14567
       O    -4.96592   16.20705   10.63047
      H1    -5.08255   17.06937   10.20321
       H   -10.11217   18.96443   12.17263
       O   -10.55211   18.30121   12.77089
      H1   -11.44140   18.69531   12.88868
       H    -3.96704   13.43250   15.16959
       O    -4.46076   12.70513   14.84413
      H1    -5.08134   12.57859   15.58353
       H    -6.47548   17.22507   14.66661
       O    -6.52493   17.63388   15.55757
      H1    -6.11266   18.53853   15.54560
       H    -1.41895   17.83405    7.23914
       O    -1.83634   18.09544    8.08392
      H1    -2.24545   17.31787    8.48784
       H   -11.91429   16.43262    6.89985
       O   -12.25428   16.69322    5.96979
      H1   -12.71392   15.89462    5.69940
       H    -5.33078   13.80314    9.58149
       O    -5.45577   13.08437   10.15879
      H1    -5.69745   12.33755    9.55688
       H    -5.70850   19.32077    9.79036
       O    -6.25547   18.51801    9.73293
      H1    -6.58954   18.41181    8.84595
       H    -7.04024   16.09348   10.53821
       O    -7.94348   16.00621   10.24135
      H1    -8.55724   15.88101   10.99805
       H    -9.11123   11.93283    7.87543
       O    -9.14744   12.02844    6.91068
      H1    -9.21518   11.13949    6.70650
       H    -5.04300   16.31211    6.05020
       O    -4.51637   15.98278    6.81001
      H1    -5.19024   15.37424    7.23315
       H    -2.90303   16.09346   14.51780
       O    -3.56081   15.92726   15.19635
      H1    -4.36373   15.90757   14.65353
       H    -9.27257   10.46218    9.90267
       O    -9.30544   11.37358    9.62530
      H1   -10.12808   11.79697    9.91308
       H    -6.81177   10.64386    8.26626
       O    -6.70692   11.57927    8.03939
      H1    -7.58258   11.76940    7.66301
       H   -12.47062   12.15561    9.50887
       O   -11.99593   11.68134   10.16339
      H1   -12.18844   10.72766   10.03091
       H    -3.74886   14.67560    6.03892
       O    -3.22095   13.86435    5.86132
      H1    -2.99035   13.81361    4.96330
       H    -4.57368   12.52060    5.99057
       O    -4.99490   11.67359    5.89849
      H1    -5.64470   11.58286    6.63807

