123
frame 6 | Written by MDAnalysis XYZWriter (release 2.4.3)
       H    -6.82795    5.44768   -6.95796
       O    -6.34907    4.62725   -6.89301
      H1    -6.90443    4.02356   -6.42505
       H    -3.97080   14.33227  -11.03071
       O    -4.57063   13.60440  -11.01412
      H1    -4.36242   12.96366  -11.66655
       H    -7.00863    7.25724   -8.19030
       O    -7.67667    6.91341   -7.54659
      H1    -8.48503    6.50460   -7.92797
       H     2.42661    4.20333  -10.61986
       O     2.90517    3.44704  -10.20740
      H1     3.35659    3.76759   -9.47027
       H    -6.68295    9.48777   -6.74736
       O    -7.04883    8.97474   -6.00050
      H1    -7.44800    8.20680   -6.43813
       H    -0.52863    9.04429   -5.36249
       O    -0.42048    8.31013   -5.99573
      H1    -1.23325    8.44820   -6.54429
       H    -0.03443    3.35376   -7.69266
       O    -0.22672    3.90865   -8.46881
      H1    -0.10154    3.20599   -9.18891
       H    -0.88035    2.81439   -5.90274
       O    -0.03085    2.44138   -6.28466
      H1    -0.44070    1.67684   -6.73533
       H     1.39056   12.00598  -12.83541
       O     1.25248   11.83216  -11.87584
      H1     0.32037   11.60001  -11.80150
       H    -4.20209    7.36806   -5.52763
       O    -4.39600    8.32291   -5.47733
      H1    -5.34682    8.42835   -5.55196
       H    -1.13329    4.17937  -14.33550
       O    -1.58459    4.87694  -13.90384
      H1    -1.69632    4.46306  -13.02426
       H    -3.51401    6.33356  -10.49524
       O    -4.39357    6.00248  -10.83354
      H1    -4.62406    6.40436  -11.65429
       H     1.22344    9.02825  -10.05639
       O     0.84623    8.15448  -10.21060
      H1     0.75478    7.85511   -9.27938
       H    -1.32881    9.66866  -13.87934
       O    -0.94589   10.12476  -14.69060
      H1    -1.63187   10.57224  -15.14749
       H    -7.63672    2.91488   -9.28354
       O    -6.66887    3.10580   -9.11579
      H1    -6.54505    3.76031   -8.37155
       H    -6.30966   10.49188   -8.57688
       O    -5.72742   10.83551   -7.84201
      H1    -4.94801   11.31285   -8.28055
       H    -0.06225    5.67846   -7.90400
       O     0.17267    6.58446   -8.02804
      H1     0.17789    7.01694   -7.17962
       H    -7.35714   10.12075  -11.86930
       O    -7.84143    9.92802  -12.64936
      H1    -8.72056    9.48720  -12.38874
       H     0.98567    6.15006  -11.21399
       O     1.67054    5.61287  -11.56781
      H1     1.60731    5.60233  -12.52577
       H    -4.85724   10.60940  -12.84119
       O    -4.45697   11.41118  -13.14988
      H1    -4.96387   11.61428  -13.93127
       H    -2.14972   11.61976  -10.07307
       O    -1.50614   11.50980  -10.76887
      H1    -1.69398   12.11806  -11.52081
       H     2.19905    6.36341  -14.07284
       O     1.30649    5.99927  -14.33611
      H1     1.31743    5.01770  -14.61682
       H    -0.40322   10.38608   -7.03758
       O    -0.21951   11.06578   -7.69847
      H1     0.61797   10.92191   -8.14827
       H    -4.64148    4.94447   -5.81662
       O    -4.16724    5.47946   -5.12002
      H1    -3.45529    4.84596   -4.89934
       H    -1.81521    6.97310   -9.14047
       O    -2.50676    7.48375   -9.53435
      H1    -2.41508    8.26990   -9.06243
       H    -3.36936    3.27655  -11.51173
       O    -2.59808    3.82986  -11.51079
      H1    -3.09913    4.64368  -11.20080
       H    -2.17332   10.38852   -7.44056
       O    -2.50640    9.49170   -7.21487
      H1    -3.28107    9.58066   -6.70623
       H    -3.52296    6.09608  -16.31815
       O    -3.99387    5.32487  -15.89743
      H1    -3.55140    5.31504  -14.97911
       H    -4.54549    1.30020  -10.07104
       O    -4.41661    1.89213  -10.86765
      H1    -5.32053    2.06928  -11.11453
       H    -5.14868    7.33423   -9.61679
       O    -5.64325    7.95438   -9.00982
      H1    -4.87925    8.45508   -8.67052
       H    -6.19546    9.35772   -9.67443
       O    -6.81803   10.04206  -10.04704
      H1    -7.65537    9.74210   -9.66268
       H    -3.90870    8.48700  -13.00494
       O    -4.83140    8.53454  -12.66480
      H1    -5.39472    8.17130  -13.34681
       H    -1.62029    7.48987  -13.55532
       O    -1.92496    8.23870  -13.05718
      H1    -1.64784    8.15783  -12.17341
       H    -1.90067    3.74091   -8.37124
       O    -2.87418    3.64859   -8.18721
      H1    -3.33398    3.59474   -9.03868
       H     2.15775   10.16764  -12.58364
       O     2.43795    9.27051  -12.51158
      H1     1.88731    8.89752  -11.89115
       H    -6.62018    3.87992  -11.07402
       O    -6.93526    3.32602  -11.84552
      H1    -7.15255    3.98308  -12.54072
       H     2.87893   10.27239   -9.02999
       O     2.02810   10.63314   -9.20782
      H1     2.19349   11.58150   -9.43289
       H    -3.92033   12.73893   -9.54951
       O    -3.62661   12.20022   -8.79397
      H1    -3.09060   12.86423   -8.28793
       H     3.59620    5.66683   -8.22303
       O     3.04877    6.48872   -8.20013
      H1     2.12573    6.27891   -8.37022
       H    -2.53151    3.21272   -3.83891
       O    -2.13025    3.94870   -4.30194
      H1    -1.85533    4.63776   -3.66050
       H    -2.34560    0.70207   -6.87073
       O    -1.98026    0.96934   -7.70524
      H1    -2.51498    1.75402   -8.03580

