123
frame 4 | Written by MDAnalysis XYZWriter (release 2.4.3)
       H    13.47100  -13.15555    4.30671
       O    12.63301  -13.07572    3.79538
      H1    12.01540  -13.79670    4.03394
       H    16.38526  -11.49213   14.76877
       O    16.28388  -12.27962   15.37420
      H1    15.67708  -12.00868   16.05026
       H    11.76332  -17.76150   12.21086
       O    12.49064  -17.95107   11.58105
      H1    12.16049  -17.86198   10.66021
       H    17.96721  -14.33912   17.76641
       O    17.92101  -15.03737   17.08323
      H1    18.41397  -15.77132   17.47663
       H    14.45096  -16.43041   14.16325
       O    13.72229  -16.37173   14.83694
      H1    12.92213  -16.52344   14.29382
       H    12.78644  -14.20670   15.48616
       O    11.98745  -13.86407   15.97850
      H1    11.30474  -13.94080   15.28241
       H    17.70396  -12.73804    3.11114
       O    17.70500  -11.91556    3.60612
      H1    17.55085  -11.16423    3.02346
       H    18.07111  -10.24891    7.35749
       O    18.08816  -11.00382    7.88738
      H1    18.87662  -11.47884    7.71956
       H    15.41672  -12.97783    5.62832
       O    15.29973  -13.08075    4.67095
      H1    16.04998  -12.58202    4.29852
       H    13.54286   -9.09977    6.57406
       O    13.47611  -10.07841    6.70484
      H1    14.19882  -10.57485    6.29436
       H    17.21691  -15.92888   12.95288
       O    17.51725  -16.39977   12.15108
      H1    18.46788  -16.23372   12.09572
       H    19.03081  -12.89938   11.99400
       O    18.91241  -12.49822   11.05502
      H1    19.74168  -12.70104   10.54744
       H    10.23215  -15.89146   13.39868
       O    10.62860  -16.73842   13.29606
      H1    10.76836  -16.93979   14.23926
       H    16.72105  -18.22084   16.61965
       O    16.81680  -18.81754   15.89381
      H1    16.82347  -19.68667   16.34263
       H    13.44308  -13.70038    9.40477
       O    13.36432  -12.72579    9.24606
      H1    12.52790  -12.56748    8.66874
       H    14.42905   -8.70838    9.19602
       O    15.03014   -9.34777    8.82415
      H1    14.47241   -9.83619    8.17694
       H    19.56273  -11.77415   16.29484
       O    19.03138  -11.65605   17.09089
      H1    18.14330  -12.02378   16.91306
       H    11.72211  -11.56496   11.41765
       O    11.98846  -10.82285   12.03795
      H1    12.94664  -10.86058   12.15383
       H    10.90481  -17.46071    8.57819
       O    10.81069  -17.81411    9.45322
      H1    10.12243  -17.36237    9.99384
       H    17.22820  -18.45792   12.30817
       O    16.87303  -19.37888   12.32577
      H1    15.94804  -19.39513   12.08769
       H    14.69390  -12.33484    8.06424
       O    15.24733  -12.36365    7.26676
      H1    16.16332  -12.22495    7.49573
       H    14.26883  -14.21863   14.25360
       O    13.63375  -13.75795   13.68807
      H1    14.18556  -12.98912   13.27723
       H    17.38708  -18.62010    9.67905
       O    18.04063  -19.27249   10.00865
      H1    17.71042  -19.40966   10.96431
       H    14.45113  -15.52743   10.32749
       O    14.44756  -15.22733    9.43713
      H1    15.34033  -14.86526    9.36101
       H    16.54301  -15.97843    5.28062
       O    15.91266  -15.81694    4.62415
      H1    15.55875  -14.89212    4.75199
       H    15.51235  -11.25375   11.57793
       O    14.67073  -11.71118   11.80130
      H1    14.37168  -12.01931   10.89630
       H    18.50824  -19.00603   15.62069
       O    19.44230  -19.00827   15.37471
      H1    19.77331  -19.82668   15.69201
       H    13.98020  -16.54422    8.55346
       O    13.98409  -17.28538    7.89910
      H1    13.85644  -18.16967    8.36618
       H    13.39792  -16.57323   11.92432
       O    14.06495  -15.90254   12.05057
      H1    13.56167  -15.06779   12.40229
       H    17.90273  -13.81504   10.26910
       O    17.30682  -14.50171   10.02488
      H1    17.19548  -15.11890   10.82623
       H    17.58083  -16.83911    1.47411
       O    16.68351  -16.45844    1.78265
      H1    16.73727  -16.41346    2.76563
       H    16.36436  -14.02326   14.71917
       O    16.55454  -14.86039   14.26304
      H1    17.17309  -15.41661   14.73487
       H    18.05493  -16.57478    6.95451
       O    18.83692  -16.24960    6.44047
      H1    19.33208  -17.13519    6.31445
       H    17.95551   -9.96884   14.30421
       O    17.95223  -10.77744   13.74987
      H1    18.08585  -10.36565   12.89811
       H    16.06985   -8.33918    7.44446
       O    16.63294   -7.66412    6.98690
      H1    17.47490   -8.08490    6.91740
       H    16.76640  -16.72276    8.99624
       O    16.55938  -17.51025    8.56378
      H1    15.67032  -17.53617    8.19524
       H    10.62433  -16.29884    6.74916
       O    11.05096  -17.08090    6.99035
      H1    12.01084  -16.96009    7.04123
       H    17.43670  -10.99161   10.11166
       O    17.07189  -10.21456   10.65142
      H1    16.28022   -9.93873   10.21373
       H    18.74671   -8.32023    8.93971
       O    18.61284   -8.22285    9.89365
      H1    18.10059   -8.97579   10.28168
       H    15.17436  -17.13457   17.02584
       O    15.84508  -16.87016   17.62310
      H1    16.11922  -15.91001   17.39689
       H    10.43275  -12.01413    8.07935
       O    11.33488  -12.17174    7.72290
      H1    11.09365  -13.01014    7.31116

