123
frame 11 | Written by MDAnalysis XYZWriter (release 2.4.3)
       H    -8.81007   11.00078   13.52522
       O    -9.45348   11.70599   13.54938
      H1    -8.87079   12.53117   13.46694
       H    -8.55353    5.55523   18.63337
       O    -9.21168    5.11157   19.12823
      H1    -9.52225    5.71667   19.82813
       H    -3.21151    2.18964   17.25311
       O    -3.56398    3.07841   17.47314
      H1    -3.05924    3.75925   16.96608
       H   -11.48036    7.43580   17.12435
       O   -12.16785    7.71168   17.72637
      H1   -12.11334    7.09169   18.46276
       H    -0.78314   11.22466   18.33946
       O    -0.56160   12.13715   18.13376
      H1    -0.48836   12.22263   17.17402
       H    -2.74538   14.40535   17.45335
       O    -3.15965   13.79677   16.86812
      H1    -3.31019   13.03134   17.48817
       H    -2.20808    6.51409   10.77962
       O    -2.15745    5.94748   11.61215
      H1    -2.83413    6.34725   12.24691
       H     0.72259    1.68017   16.60343
       O     0.67319    2.59653   16.24778
      H1     0.12897    3.08981   16.89595
       H    -7.39089   10.47444   16.83486
       O    -7.62793    9.70265   17.29415
      H1    -7.47415    9.85786   18.18600
       H    -1.44490    1.13668   19.83186
       O    -1.15493    0.29005   19.45314
      H1    -1.05711    0.46017   18.49643
       H    -5.81964   11.98330   12.79011
       O    -6.28252   11.58864   12.02631
      H1    -5.57446   11.41539   11.39599
       H    -0.19709    9.26526   18.98431
       O    -1.14186    9.46753   18.97375
      H1    -1.57599    9.25930   19.81885
       H    -5.59735    5.23327   18.39446
       O    -5.53376    4.47373   18.96208
      H1    -4.98499    3.86241   18.40644
       H    -1.08271    9.63543   12.35438
       O    -1.80790    9.26551   12.80999
      H1    -2.02821    9.82585   13.58499
       H   -12.99360    9.83474   17.93514
       O   -12.62325   10.70956   17.80264
      H1   -11.85007   10.47662   17.18427
       H   -10.32318    8.33971   15.74578
       O   -10.07802    7.43660   15.89951
      H1   -10.26566    6.95781   15.11024
       H    -7.35155    7.02661   14.77656
       O    -6.98712    7.06512   13.85307
      H1    -6.00807    7.05065   13.94175
       H   -10.18018   10.95977   15.58615
       O   -10.41094   10.29145   16.22095
      H1    -9.65065   10.32262   16.82920
       H    -6.27558    6.08473   10.92881
       O    -6.98448    5.77396   11.49755
      H1    -6.82861    6.20935   12.34530
       H    -2.06035    8.34155   18.03192
       O    -2.57835    8.01297   17.31680
      H1    -2.05589    8.32961   16.56754
       H    -1.64210    5.60037   15.87347
       O    -2.41345    5.47729   16.37288
      H1    -2.53567    6.36471   16.68495
       H     0.55072    7.04958   16.37582
       O     0.32826    7.72829   15.78342
      H1     1.08542    8.33438   15.84620
       H    -1.58879    3.28471   19.06237
       O    -0.69885    3.37187   18.66934
      H1    -0.23133    3.86326   19.34489
       H     1.91944    5.70999   18.02610
       O     1.77361    5.57987   17.10458
      H1     2.02546    4.68178   16.99108
       H    -7.30586    8.67442   12.72081
       O    -7.92601    9.42684   12.68096
      H1    -7.50724   10.18490   12.25757
       H    -3.77931   11.05389   14.62067
       O    -2.93312   10.69648   14.98661
      H1    -2.43508   11.51693   15.11515
       H    -8.86373    3.66703   14.92943
       O    -8.08326    3.71626   15.53860
      H1    -8.04444    4.68086   15.70376
       H    -0.48647    6.18478   12.73904
       O     0.26610    6.28788   13.30450
      H1    -0.05310    6.82646   14.12498
       H    -2.71871   11.14121   18.25409
       O    -3.52368   11.31146   17.81065
      H1    -3.30573   11.10465   16.91185
       H    -4.95488   13.44224   14.18977
       O    -5.00317   12.50140   14.40159
      H1    -5.32069   12.49863   15.33146
       H    -0.03073   11.78923   15.13484
       O    -0.68793   12.40781   15.50128
      H1    -0.86438   13.10534   14.81916
       H   -11.31789    3.23942   17.83414
       O   -11.55012    4.14615   18.08195
      H1   -10.71720    4.45945   18.43230
       H    -2.52931    2.29712   14.32492
       O    -3.19818    1.58551   14.38122
      H1    -3.11104    1.23643   15.33262
       H    -4.13399    7.09057   14.36119
       O    -3.75480    7.14090   13.47845
      H1    -3.40224    8.03623   13.40824
       H   -10.96898   12.45158   19.20146
       O   -10.29104   11.96688   19.71959
      H1   -10.45222   11.05600   19.61424
       H    -4.99012    2.37648   14.40992
       O    -5.75474    2.72900   13.87976
      H1    -6.32733    3.21319   14.53237
       H    -5.93634   12.06430   17.56001
       O    -6.62139   12.11734   16.86827
      H1    -7.13936   12.91177   17.08506
       H    -7.24433    6.71869   17.20088
       O    -7.79419    6.36105   16.44999
      H1    -8.59092    6.90015   16.34136
       H    -5.83810    8.56977   16.10054
       O    -5.06784    8.04774   15.86805
      H1    -4.32195    8.34365   16.46010
       H    -5.38179    7.33924   17.40030
       O    -5.67500    7.11062   18.28476
      H1    -5.25559    7.64237   18.94220
       H    -5.98190   14.30377   18.61972
       O    -5.42906   13.72759   19.13876
      H1    -6.14839   13.13977   19.50373

