123
frame 11 | Written by MDAnalysis XYZWriter (release 2.4.3)
       H    -5.46360  -16.48100   11.50023
       O    -4.97400  -16.51625   10.66126
      H1    -4.90903  -17.46138   10.39843
       H    -2.49994  -17.07145   16.12812
       O    -2.63568  -17.64769   15.34126
      H1    -2.55027  -18.59181   15.67043
       H    -5.32221  -16.95393   13.34800
       O    -5.64200  -16.07988   13.40485
      H1    -4.88984  -15.48466   13.38461
       H    -6.77057  -18.16515   18.79773
       O    -7.52011  -17.53009   19.09766
      H1    -7.64372  -16.89630   18.36778
       H   -10.87205  -15.57782   19.25359
       O   -10.92600  -14.96610   18.43777
      H1   -10.70419  -14.12793   18.91298
       H    -8.91249  -15.22806   17.86049
       O    -7.90740  -15.34684   17.77624
      H1    -7.63088  -14.59877   17.28211
       H    -5.18763  -19.21203   13.89924
       O    -5.26604  -18.84830   12.99360
      H1    -6.14330  -19.19241   12.61610
       H    -8.08155  -12.71112   13.32726
       O    -8.75230  -13.30888   13.82228
      H1    -9.33895  -12.71486   14.31320
       H    -4.80689  -14.55657   18.10437
       O    -4.57356  -15.43818   18.39642
      H1    -5.08309  -15.60305   19.20588
       H    -5.05279  -12.25406   18.26741
       O    -5.03646  -12.77415   17.42840
      H1    -4.20181  -12.44925   17.05381
       H    -1.32170  -15.95755   18.20404
       O    -1.97444  -15.89447   17.51352
      H1    -2.83127  -15.64282   17.97231
       H    -0.15585  -14.03944   18.61696
       O    -0.54547  -13.16854   18.59675
      H1     0.11168  -12.46719   18.61608
       H   -11.74783  -13.82064   15.74468
       O   -12.40433  -14.21119   16.33432
      H1   -11.99896  -14.58718   17.10041
       H    -6.17634   -8.29707   15.87749
       O    -6.42413   -7.33614   15.88475
      H1    -7.00412   -7.24481   15.14695
       H    -1.17102  -11.45212   13.70244
       O    -1.07835  -10.55530   13.95199
      H1    -0.37030  -10.54935   14.62134
       H    -3.16559  -10.92173   15.78925
       O    -3.36265  -10.16219   15.19232
      H1    -2.49878  -10.07796   14.74616
       H    -4.12964  -13.16421   12.24060
       O    -4.07410  -14.14746   12.37825
      H1    -3.93877  -14.40975   11.44280
       H     1.21406  -11.19931   15.99885
       O     0.56874  -10.46948   16.15478
      H1     0.51665  -10.43951   17.09809
       H    -5.09846   -7.86377   17.99264
       O    -5.32270   -8.70925   18.35828
      H1    -5.96449   -9.10629   17.83224
       H    -7.87863  -16.42213   16.12041
       O    -7.92782  -16.73632   15.17277
      H1    -6.99475  -16.75822   14.87931
       H    -5.40957  -18.42245   17.44800
       O    -5.28449  -18.95801   18.24063
      H1    -4.55864  -18.58130   18.77466
       H     0.56068  -16.60877   19.38368
       O     0.75332  -16.13665   18.59138
      H1     1.26784  -16.65285   17.94810
       H    -3.69100  -11.19712   12.62272
       O    -4.62023  -11.01722   12.85946
      H1    -4.62764  -10.69180   13.83252
       H   -11.20494  -11.62278   14.61646
       O   -10.76555  -12.19227   15.23267
      H1   -10.69103  -11.76302   16.07158
       H    -2.16785   -9.10777   18.20249
       O    -2.70932   -9.41086   18.97803
      H1    -3.64268   -9.26235   18.69006
       H   -10.18201  -14.62280   13.48202
       O   -10.67796  -15.41636   13.48411
      H1   -10.08769  -16.06712   14.04447
       H     2.38216  -14.92751   19.32059
       O     3.18587  -14.56813   18.94001
      H1     2.82084  -14.06741   18.21831
       H    -1.19914  -13.74735   14.25813
       O    -2.06319  -13.35200   14.09914
      H1    -2.51609  -13.73069   13.33941
       H    -6.75109  -11.10534   15.80781
       O    -6.76503  -10.14563   15.95898
      H1    -7.41921   -9.71565   15.39691
       H    -0.66455  -18.79877   12.85605
       O    -1.22370  -18.02555   12.54603
      H1    -1.77337  -17.83879   13.31325
       H   -10.31716  -17.41560   16.76977
       O   -10.21419  -18.13835   16.11663
      H1    -9.52826  -17.78553   15.50069
       H    -9.17173  -14.39485   10.92668
       O    -8.27984  -14.67570   11.00887
      H1    -7.98259  -14.33151   11.83068
       H   -13.05625  -17.55524   15.05974
       O   -12.60100  -18.35035   15.20548
      H1   -11.70537  -18.22993   15.49444
       H     1.39632  -13.86896   14.07173
       O     0.74903  -13.88116   14.76927
      H1     0.68429  -14.85632   14.97000
       H     2.64092  -17.66660   17.02561
       O     2.35203  -16.86526   16.62193
      H1     1.72429  -17.09274   15.93018
       H    -6.41986  -12.97190   16.36417
       O    -7.39712  -13.04305   16.29106
      H1    -7.53084  -13.28798   15.37870
       H    -5.35925  -16.50445   16.83963
       O    -5.31020  -17.26822   16.20404
      H1    -4.37927  -17.28804   15.90674
       H     0.35363  -16.75130   13.85748
       O     0.25154  -16.77214   14.82338
      H1    -0.67804  -16.91805   14.89425
       H   -10.03466  -10.43182   17.43685
       O    -9.98528  -11.37989   17.69005
      H1    -9.12943  -11.68035   17.31891
       H    -2.06059  -12.91341   15.80644
       O    -2.30939  -12.46469   16.62863
      H1    -1.86827  -12.84540   17.38189
       H     1.72887  -13.09812   16.21367
       O     1.95079  -12.62942   17.01037
      H1     2.81401  -12.20203   16.84624

