123
frame 11 | Written by MDAnalysis XYZWriter (release 2.4.3)
       H    -6.70236    9.40777  -18.85425
       O    -7.65467    9.50748  -18.98861
      H1    -7.78332   10.43233  -18.81081
       H    -5.33401    5.43726  -18.09579
       O    -5.65742    6.09293  -17.46631
      H1    -5.33997    5.89442  -16.61852
       H   -11.04039    8.45930  -12.29358
       O   -10.46123    8.66824  -13.08683
      H1   -10.04226    7.82146  -13.24574
       H    -9.14062    7.40261  -16.57090
       O    -9.01246    8.35163  -16.62018
      H1    -8.57826    8.51684  -17.46856
       H    -7.23750   -1.33958  -13.59928
       O    -7.52121   -0.70338  -14.28460
      H1    -8.26255   -1.12418  -14.74838
       H    -3.18529    7.93017  -12.69864
       O    -3.71057    7.26012  -12.27276
      H1    -4.43002    6.97101  -12.85396
       H   -11.20778    6.37833  -17.53725
       O   -10.85022    6.58274  -18.40645
      H1   -10.62873    7.55095  -18.39860
       H    -5.54842    7.82264  -18.10616
       O    -5.15149    8.47124  -18.63943
      H1    -4.39899    8.88031  -18.22382
       H    -6.60177    6.78973  -13.85974
       O    -6.38703    6.03915  -13.24997
      H1    -5.76868    5.58660  -13.86175
       H    -1.95790    5.57425  -15.63166
       O    -2.52165    6.38239  -15.78221
      H1    -2.55177    6.48493  -16.79052
       H   -10.14033    5.28517  -13.81536
       O    -9.75172    6.03084  -14.30882
      H1    -9.17266    5.72520  -15.03330
       H    -0.18031    5.15338  -17.20272
       O     0.64341    5.33848  -17.72006
      H1     0.85857    6.26646  -17.34270
       H   -11.32707    4.98436  -11.86022
       O   -11.21125    4.42583  -12.62837
      H1   -12.09376    4.19186  -13.01290
       H    -7.57431    9.38897  -11.72026
       O    -7.88138    9.70618  -12.53000
      H1    -8.77652    9.38832  -12.66698
       H   -10.45005    3.01651  -12.05920
       O    -9.85744    2.29548  -11.72088
      H1    -9.02425    2.45421  -12.18369
       H   -11.18009    9.18597  -14.55284
       O   -11.51318    9.39674  -15.46938
      H1   -10.79298    8.92486  -15.96879
       H    -8.55552    2.25420  -15.44909
       O    -7.66458    2.33606  -15.12551
      H1    -7.46605    1.39914  -14.93488
       H    -6.72402    3.35802  -19.19736
       O    -7.08574    2.84477  -18.45798
      H1    -7.99238    2.81018  -18.62354
       H    -8.82150    0.38383  -19.32651
       O    -9.55810    0.98430  -19.39470
      H1   -10.14410    0.72970  -18.66488
       H    -4.69954   -0.99981  -16.24136
       O    -5.47698   -0.39216  -16.19032
      H1    -6.00687   -0.67297  -15.44322
       H    -6.00211    2.71837  -16.87130
       O    -5.09128    2.54665  -16.47539
      H1    -5.09491    1.58916  -16.27767
       H   -14.03432    4.58717  -19.46247
       O   -13.39921    3.97595  -19.12481
      H1   -12.66644    4.04868  -19.72090
       H    -1.80482    3.19703  -16.16073
       O    -1.35334    4.02305  -15.92569
      H1    -0.46924    3.71211  -15.69842
       H    -3.88940    5.42134  -15.46287
       O    -4.74880    4.96004  -15.23042
      H1    -4.80028    4.07584  -15.58686
       H    -7.25245    5.47283  -16.78558
       O    -8.04010    5.32555  -16.24910
      H1    -7.88700    4.41411  -15.85902
       H    -7.04790    8.98726  -14.02199
       O    -6.81503    8.62686  -14.86915
      H1    -7.68411    8.46337  -15.31523
       H    -2.43157    1.37706  -16.91432
       O    -2.70764    1.76200  -17.75030
      H1    -3.59857    2.11208  -17.64540
       H   -10.45255   -1.22703  -16.85271
       O   -10.94224   -0.56797  -17.41304
      H1   -11.89575   -0.64510  -17.18345
       H   -12.63264    3.50771  -17.41326
       O   -12.69150    3.51811  -16.44742
      H1   -12.31356    4.37544  -16.13151
       H    -6.08048   -0.05123  -18.00335
       O    -6.29476    0.25748  -18.90629
      H1    -6.44015    1.24636  -18.84017
       H    -2.07112    6.38792  -19.47775
       O    -1.91762    6.56924  -18.54494
      H1    -0.97819    6.49852  -18.52032
       H   -10.74926    2.47730  -16.22484
       O    -9.93023    2.06466  -16.57483
      H1   -10.14279    1.16867  -16.90713
       H   -10.63530    8.86193  -20.01189
       O   -10.99296    9.23044  -19.20786
      H1   -11.99556    9.15281  -19.28346
       H    -4.26837   10.40888  -15.53707
       O    -5.15832   10.82572  -15.35891
      H1    -5.76308   10.10815  -15.15938
       H   -12.44997    6.32903  -15.35858
       O   -11.75078    5.76902  -15.78502
      H1   -10.89940    5.88561  -15.37366
       H    -2.40647    8.50471  -15.45185
       O    -2.62690    9.47815  -15.40742
      H1    -2.58399    9.66747  -14.44954
       H   -13.22520    8.32015  -16.09620
       O   -13.86798    7.59872  -16.03293
      H1   -14.71288    8.02617  -15.97014
       H    -9.89212   11.93136  -14.71288
       O   -10.49840   12.04232  -15.48710
      H1   -10.69905   11.09203  -15.78697
       H    -5.37470    2.31968   -9.88825
       O    -5.29405    2.00313  -10.77584
      H1    -5.88405    2.42896  -11.41476
       H    -7.04257    2.80894  -13.29529
       O    -7.07740    3.16478  -12.40262
      H1    -6.99165    4.12672  -12.43303
       H    -3.59679   10.48337  -19.21489
       O    -3.09763   10.17112  -18.44101
      H1    -2.87852   10.95526  -17.86793

