123
frame 2 | Written by MDAnalysis XYZWriter (release 2.4.3)
       H    17.23890  -11.64064   -5.45374
       O    16.50252  -11.30132   -5.97360
      H1    16.41726  -10.31872   -5.93775
       H    18.48055   -8.60274   -8.58533
       O    18.00159   -9.29008   -8.13776
      H1    17.46063   -8.84702   -7.46885
       H    11.90467   -1.36678   -0.01711
       O    12.45698   -1.25463   -0.83469
      H1    12.63308   -2.19940   -1.15586
       H    17.45477  -11.60079   -0.25848
       O    18.03453  -10.87509   -0.51321
      H1    18.54749  -10.63175    0.27767
       H    14.58552   -4.34523    2.52822
       O    13.91508   -4.85186    2.95754
      H1    14.51689   -5.56916    3.38169
       H    13.02162  -10.28447    0.13560
       O    12.16846   -9.89436   -0.18369
      H1    11.88948  -10.60064   -0.80724
       H    16.85499   -9.73970    0.24415
       O    16.64401   -8.86531    0.57742
      H1    15.93792   -8.88758    1.28146
       H    13.37927   -5.45180   -4.07398
       O    14.11016   -5.48614   -3.44065
      H1    14.02661   -6.40205   -3.06585
       H    13.39513   -4.53206   -2.41167
       O    12.85901   -4.23179   -1.64654
      H1    11.95123   -4.26263   -1.94180
       H    12.10812   -1.73745   -7.18403
       O    12.44307   -2.65501   -7.35804
      H1    11.63916   -3.08106   -7.45553
       H    14.80025  -11.53190   -5.01390
       O    14.12999  -11.86559   -4.40235
      H1    13.87665  -11.05502   -3.93733
       H    13.72670   -8.67089    2.96537
       O    14.65625   -8.72162    2.87207
      H1    15.04519   -8.19819    3.58340
       H    18.24878   -5.44312   -0.10766
       O    17.45296   -5.11198   -0.47767
      H1    17.43396   -4.13246   -0.27110
       H    16.36395   -1.10967   -2.59750
       O    17.22093   -1.31211   -2.16885
      H1    17.45741   -0.58096   -1.60572
       H     8.70899   -5.09722    0.27242
       O     8.62524   -4.26918   -0.13633
      H1     9.26158   -4.30477   -0.90725
       H    18.43680   -5.50014   -2.45513
       O    19.00384   -5.15580   -3.14281
      H1    18.32456   -4.62874   -3.60548
       H    13.19663   -9.46576   -2.22086
       O    13.92975   -9.27643   -2.77472
      H1    14.61334   -8.87878   -2.29403
       H    10.67729  -10.43193   -5.97382
       O    10.90380   -9.50114   -5.84822
      H1    10.38763   -9.05985   -6.51689
       H     9.10415   -7.15249   -0.71805
       O     8.67780   -7.40092   -1.48773
      H1     9.39559   -7.64032   -2.07108
       H     9.81937   -7.30655   -4.22947
       O    10.02864   -8.06924   -3.71819
      H1     9.60781   -8.81483   -4.17079
       H    16.04090   -2.85077    0.99649
       O    15.10772   -3.15620    1.06108
      H1    15.08020   -3.77330    0.26245
       H    12.47768   -8.66852   -5.53863
       O    13.28699   -8.13826   -5.49328
      H1    13.55378   -8.34474   -4.58382
       H    12.24742   -9.38217   -8.58927
       O    12.07394   -8.43698   -8.64629
      H1    12.93043   -8.04506   -8.58895
       H    14.91979   -4.03674   -9.08092
       O    14.23196   -4.32826   -8.43404
      H1    13.77278   -3.54686   -8.01725
       H    13.70311   -7.26851   -7.08229
       O    14.29750   -7.04011   -7.84604
      H1    14.17900   -6.11290   -8.01153
       H    16.58652   -6.29635   -8.06040
       O    17.08831   -5.85142   -7.36298
      H1    16.76598   -6.23150   -6.53872
       H    16.31782   -3.60767   -4.82035
       O    17.06404   -3.50352   -4.20827
      H1    16.93757   -2.57498   -3.85888
       H    12.93951   -5.53415   -0.60618
       O    13.07369   -6.45975   -0.17775
      H1    14.01888   -6.65152   -0.19600
       H     8.67601   -1.71164   -1.97458
       O     9.34662   -1.89246   -2.62063
      H1     9.86607   -1.09974   -2.76417
       H    12.16818   -3.51180   -4.42170
       O    12.28820   -2.56398   -4.57575
      H1    12.39001   -2.55620   -5.56836
       H    18.33239   -8.85047   -3.91157
       O    18.26711   -8.01970   -4.42479
      H1    18.49661   -7.32905   -3.75515
       H    19.61016   -3.47668   -2.43899
       O    19.58592   -2.72297   -1.83189
      H1    18.67519   -2.35248   -1.91038
       H     9.72749   -5.00736   -2.88737
       O    10.21479   -4.44084   -2.25946
      H1     9.92132   -3.46972   -2.36708
       H    14.38888   -0.41124   -3.50821
       O    14.81686   -1.02951   -4.04871
      H1    14.01051   -1.50828   -4.42190
       H    11.99757   -7.41222    1.03086
       O    11.45767   -7.94183    1.58141
      H1    11.57093   -8.83841    1.21633
       H    15.49393   -8.09268   -5.99466
       O    16.26359   -8.69295   -6.06111
      H1    16.89790   -8.29836   -5.42369
       H    15.73131   -6.57027   -1.21466
       O    15.59561   -7.46877   -1.49366
      H1    16.17213   -7.94675   -0.96171
       H    12.65119   -5.45115   -6.42050
       O    12.24975   -5.19881   -5.58032
      H1    11.31841   -5.05998   -5.86638
       H    18.60398   -3.17574   -6.19375
       O    18.24087   -3.08900   -7.06056
      H1    17.71681   -3.86994   -7.17579
       H    19.08168  -10.95499   -3.32314
       O    18.99695  -10.09419   -2.90720
      H1    18.62307  -10.29793   -1.95626
       H     7.51828   -5.19852   -2.95636
       O     8.07244   -5.81118   -3.49964
      H1     8.05440   -6.52843   -2.78845

