123
frame 5 | Written by MDAnalysis XYZWriter (release 2.4.3)
       H     2.75459   -5.33931   -6.04353
       O     2.91994   -4.55222   -6.56725
      H1     2.18359   -4.57028   -7.19714
       H     6.21622   -1.64950   -3.42190
       O     5.79018   -2.27255   -4.01856
      H1     5.71965   -3.07067   -3.44767
       H    -0.61905   -8.47681   -2.19624
       O     0.01296   -8.65062   -2.94943
      H1    -0.49424   -9.10876   -3.61163
       H    -0.45830   -1.94001   -5.18200
       O    -1.21124   -1.85578   -4.54444
      H1    -0.75225   -1.59432   -3.75467
       H     0.05689   -6.91536   -3.30640
       O     0.37788   -6.00053   -3.36668
      H1     1.33631   -6.07082   -3.65688
       H    -2.95843   -4.69873   -7.62779
       O    -3.59942   -5.29525   -7.21626
      H1    -3.99499   -5.94093   -7.90552
       H     3.83931   -4.79835  -11.12771
       O     3.48446   -4.91670  -11.99875
      H1     2.67868   -5.40344  -11.90271
       H    -0.40387   -5.61930   -6.45837
       O    -0.41224   -5.01166   -5.71498
      H1    -0.01911   -5.49608   -4.97188
       H     0.73605   -4.67412  -11.31785
       O     0.42860   -3.96923  -10.79940
      H1     0.20873   -3.37207  -11.44341
       H    -0.82138   -6.72508  -10.84912
       O    -1.43250   -7.07000  -10.19727
      H1    -2.26180   -6.45229  -10.24634
       H     0.26962   -3.58285   -6.28159
       O     0.60515   -2.71571   -6.63512
      H1     1.16218   -2.87651   -7.45816
       H     3.87799  -10.17567   -8.89404
       O     3.48158   -9.37552   -8.51638
      H1     3.89010   -8.55297   -8.89005
       H     1.03403   -7.65768  -11.77777
       O     1.15150   -6.83685  -11.30262
      H1     1.40039   -7.06486  -10.42060
       H     2.13009   -2.51212   -1.06687
       O     2.66362   -3.01971   -1.74186
      H1     2.39932   -2.81586   -2.66619
       H     1.58727   -4.42704   -1.12717
       O     1.07251   -5.19304   -0.87741
      H1     0.69866   -5.46636   -1.71725
       H     5.21110   -3.78535   -9.58770
       O     4.54590   -4.46802   -9.73431
      H1     3.83095   -4.20824   -9.11228
       H     3.44575   -2.63176   -4.39813
       O     2.51048   -2.54226   -4.30203
      H1     2.22227   -2.69959   -5.22742
       H     5.00496   -0.18593  -10.01197
       O     5.35422    0.45524  -10.67493
      H1     4.87864    0.28380  -11.48303
       H     7.11686   -5.37088   -7.46108
       O     7.05103   -4.48566   -7.06229
      H1     6.16385   -4.04810   -7.03313
       H    -1.28715   -3.14921   -7.40594
       O    -2.02793   -3.40316   -7.93276
      H1    -2.79694   -2.77556   -7.75392
       H     5.45338   -9.25380   -4.39245
       O     5.23055  -10.08714   -4.84458
      H1     5.18051  -10.82350   -4.24511
       H     7.52565   -4.06037   -8.85915
       O     7.46621   -4.24231   -9.80907
      H1     7.49773   -3.35802  -10.19317
       H     3.56532   -7.05220   -4.09206
       O     2.83012   -6.62512   -4.55689
      H1     2.57252   -7.36531   -5.11066
       H     2.18852   -1.73121  -11.76597
       O     2.69594   -2.32070  -12.32193
      H1     2.49562   -3.24083  -12.15485
       H     8.00751   -2.59544   -5.58883
       O     8.91600   -2.30447   -5.77328
      H1     9.06365   -1.44804   -5.20385
       H     4.18563    0.32626   -4.38383
       O     3.25283    0.60010   -4.54300
      H1     2.70506    0.16926   -3.86390
       H     0.33567   -0.98016  -10.38728
       O     1.23917   -0.74021  -10.61095
      H1     1.57832   -0.15740   -9.93794
       H     2.50308   -8.72151   -6.93843
       O     1.85961   -8.62967   -6.20920
      H1     1.65081   -9.51374   -5.94662
       H     8.78848   -7.20792   -8.18833
       O     7.80931   -6.97036   -8.05275
      H1     7.54998   -6.47114   -8.82640
       H     2.41348    1.04469   -6.27026
       O     2.11700    1.10997   -7.18566
      H1     1.52311    1.85354   -7.13583
       H     5.11719   -5.14685   -2.97911
       O     5.83955   -4.55752   -2.74075
      H1     6.20809   -4.98637   -1.99845
       H    -1.76189   -0.53011   -9.33648
       O    -1.56412   -1.38598   -9.78272
      H1    -1.58608   -2.13688   -9.14430
       H    -3.89487   -7.74201   -6.07825
       O    -2.91335   -7.62213   -6.04122
      H1    -2.86638   -6.79396   -6.50302
       H     4.39241   -3.12295   -6.55999
       O     5.21083   -2.63070   -6.75896
      H1     5.50826   -2.42117   -5.88691
       H     3.94123   -4.01262   -0.91457
       O     4.32103   -4.39463   -0.15299
      H1     5.08880   -3.83416   -0.03201
       H     0.17093   -7.26266   -7.80741
       O     0.19351   -6.31744   -7.94045
      H1    -0.48803   -6.08929   -8.56816
       H     6.04902   -7.15622   -4.27134
       O     5.40463   -7.59388   -3.69348
      H1     5.52721   -7.19659   -2.82175
       H     4.79845   -6.41638   -9.90199
       O     4.91051   -7.37244   -9.78998
      H1     5.45343   -7.62770  -10.50038
       H     7.53833   -5.47069   -5.47884
       O     7.87221   -5.98243   -4.76491
      H1     7.86031   -5.44125   -3.97441
       H     4.08432   -0.94554   -7.40764
       O     3.83171   -0.71168   -8.31550
      H1     3.21674    0.10384   -8.19108
       H     2.67268   -2.18329   -8.99812
       O     2.34048   -3.07071   -8.88337
      H1     1.77486   -3.37679   -9.58647

