123
frame 2 | Written by MDAnalysis XYZWriter (release 2.4.3)
       H    16.65686   -1.02479   12.53184
       O    16.34568   -1.71263   13.12687
      H1    15.62414   -1.39355   13.65826
       H    15.99972    4.85757   18.47013
       O    15.36032    4.55382   17.83555
      H1    15.23358    5.31210   17.31712
       H    16.92211    5.21657   10.86178
       O    16.03397    5.60691   10.72062
      H1    15.43647    5.26542   11.32068
       H    18.58282    3.74846   10.64529
       O    18.37719    4.55968   11.20424
      H1    18.79979    4.34828   12.02746
       H    10.38635    6.35434   17.21737
       O     9.99078    7.17765   17.35469
      H1    10.57690    7.82919   16.99883
       H    13.37655    4.68183   17.93253
       O    12.44033    4.54280   17.84355
      H1    12.37443    3.83461   17.21675
       H    10.80545    5.34343   13.77897
       O    10.51504    6.25446   13.90397
      H1     9.70961    6.09466   14.43966
       H    17.66340   -2.15272   18.56401
       O    16.73067   -2.30320   18.39802
      H1    16.55897   -3.15562   18.77794
       H    16.38172    1.00385   18.17522
       O    16.31246    0.51831   17.36576
      H1    16.34297   -0.40939   17.53313
       H    17.55299   10.92196   11.63185
       O    17.86193   10.82782   12.55378
      H1    18.53823   10.11433   12.60571
       H    12.07191    0.98239   14.46243
       O    12.08086    0.02793   14.14040
      H1    12.22876    0.09608   13.20296
       H    15.39822    2.20109   12.61104
       O    15.49424    2.68645   13.43986
      H1    15.22684    2.03734   14.10434
       H    13.74019    6.61678   14.82277
       O    13.23776    6.45219   14.01668
      H1    12.31631    6.27475   14.20804
       H    13.75271   -2.08712   14.71012
       O    14.26656   -1.51485   15.29611
      H1    13.56540   -1.04540   15.78965
       H    19.29279   -1.28022   18.73758
       O    19.35308   -2.20902   19.03076
      H1    19.59296   -2.66883   18.24137
       H    19.59489    7.92178   17.74533
       O    18.62381    8.05769   17.71428
      H1    18.42401    9.01819   17.43695
       H     9.91146    7.78883   15.03133
       O     9.60143    8.67014   15.03008
      H1     8.70691    8.58149   14.63825
       H     7.76322    1.91884   17.71555
       O     8.51223    2.35786   18.16706
      H1     8.55985    3.19236   17.72281
       H    16.75447   10.30416   13.75485
       O    15.94120    9.83465   14.02810
      H1    15.28071   10.09806   13.38892
       H     8.86239    4.32112   14.45741
       O     8.58177    4.89113   15.23464
      H1     7.70376    5.22214   14.90649
       H    12.29762    7.87353   11.95008
       O    11.68952    7.91639   11.18879
      H1    11.05374    7.19338   11.25790
       H    14.54731    1.98931   19.22432
       O    15.10733    1.53179   19.83568
      H1    14.95374    0.62944   19.58686
       H    18.52394    8.05512   13.65804
       O    19.19330    8.52113   13.14736
      H1    20.03818    8.46018   13.60698
       H    12.93299   -3.82389   16.61238
       O    13.70717   -3.38990   17.06480
      H1    14.07703   -2.79660   16.43013
       H    19.33625    6.19431   10.94221
       O    19.78319    7.07061   10.87109
      H1    19.64936    7.41399   11.75107
       H    13.41685   -0.27910   18.09795
       O    12.67432   -0.47048   17.50350
      H1    12.63797   -1.43874   17.63281
       H    18.11240   11.82202   17.87592
       O    17.30363   11.32583   17.69763
      H1    17.07129   11.39854   16.79162
       H    13.49499    5.10418   12.88780
       O    13.68779    4.41256   12.26339
      H1    14.38009    3.91281   12.70342
       H    10.06077    1.49125   17.32919
       O    10.77998    1.41535   16.67391
      H1    11.34210    0.67389   16.96719
       H    15.11717    0.98297   16.16966
       O    14.41332    1.30684   15.57080
      H1    14.15916    0.52725   15.11199
       H    18.44568   -0.75821   15.21574
       O    18.34973   -1.66300   15.05307
      H1    17.47000   -1.75463   14.58910
       H     7.42079    6.95559   18.60658
       O     7.95347    7.58427   19.12929
      H1     8.71966    7.67563   18.56758
       H    18.23551    4.65339   15.72663
       O    18.84684    5.40956   16.08842
      H1    18.35740    6.21391   15.95001
       H    16.16417    7.87433   14.10653
       O    16.62134    7.14315   14.51561
      H1    16.62062    6.39697   13.96426
       H    12.00066    1.92008   11.42212
       O    11.75486    2.55403   12.08401
      H1    12.52890    3.12697   12.08151
       H    16.55891    2.93634   14.71762
       O    17.04916    3.16227   15.52921
      H1    16.46243    3.50001   16.20647
       H    19.39123    4.07180   19.28622
       O    19.92949    4.35018   18.53619
      H1    19.24367    4.63515   17.91403
       H    15.29765    7.27550   16.09007
       O    14.59328    6.78907   16.55067
      H1    14.14958    7.15986   17.28527
       H    15.47451   10.69135   18.58006
       O    15.01053   10.62026   19.39672
      H1    15.53615   11.10224   20.03855
       H    11.91033   10.78412   17.31816
       O    12.23981    9.88132   17.47169
      H1    12.84756    9.96894   18.16750
       H    19.55877    1.43585   15.35414
       O    18.68066    1.10519   15.11674
      H1    18.04267    1.78426   15.43523

