123
frame 11 | Written by MDAnalysis XYZWriter (release 2.4.3)
       H    11.86173   -7.90192    9.73896
       O    10.96575   -7.60419    9.98376
      H1    11.07442   -6.73614   10.42194
       H    18.92718   -3.28508   11.65199
       O    19.07106   -2.36946   11.32178
      H1    19.95271   -2.13490   11.60470
       H     8.73192   -4.28973   12.14556
       O     8.85108   -4.20688   11.16161
      H1     8.29894   -4.90349   10.76440
       H    14.26109   -7.59148    9.71792
       O    13.57275   -7.49723    9.05126
      H1    13.31220   -6.54924    8.94584
       H    10.00865   -4.99793    4.15944
       O    10.08608   -4.03188    4.12154
      H1    11.02956   -3.82331    3.98304
       H    10.72376   -4.33341    5.97934
       O    10.57698   -4.52563    6.96605
      H1    11.45283   -4.67178    7.37526
       H    19.10771   -6.04123    6.91929
       O    18.62004   -5.25225    6.59220
      H1    17.74305   -5.52411    6.27823
       H    16.97060   -2.42863   10.89237
       O    16.21696   -2.12858   10.36398
      H1    15.84840   -2.86171    9.87596
       H    14.61397   -1.59774   10.81024
       O    13.75335   -1.25340   11.18876
      H1    13.57141   -0.49154   10.61084
       H    16.61352   -8.50232    4.88042
       O    15.81955   -8.99496    4.65434
      H1    15.44475   -9.24360    5.56314
       H    13.14501   -3.79377    2.30413
       O    12.67594   -4.34454    2.94179
      H1    13.28657   -4.57454    3.68408
       H    15.85382    0.38912   13.20940
       O    14.90760    0.39322   13.27168
      H1    14.57725   -0.21946   12.56682
       H    13.50525   -8.59009    7.43479
       O    13.39513   -9.46486    7.03976
      H1    12.78094   -9.83485    7.66283
       H     7.01081   -6.66764    6.74806
       O     7.72469   -5.99967    6.78489
      H1     8.54856   -6.45166    6.83573
       H    15.75724   -3.92388    3.06015
       O    16.07285   -4.54425    3.80090
      H1    16.06553   -4.00238    4.59745
       H    13.71924   -2.84177    6.51970
       O    14.50819   -3.13491    6.04189
      H1    14.52578   -2.47514    5.32264
       H    16.04374   -4.62881    8.86017
       O    15.31605   -4.41474    9.43082
      H1    15.59510   -4.69636   10.30258
       H    17.34499   -0.75528    9.03770
       O    17.75249    0.10744    8.90470
      H1    18.51118    0.16645    9.58415
       H    15.30877   -5.27873    6.19617
       O    15.84764   -5.80007    6.75535
      H1    15.92159   -6.71558    6.47907
       H    10.57638   -0.29650   12.03150
       O    10.80422   -0.32950   11.09731
      H1    10.09672   -0.80382   10.69022
       H    13.89390   -6.24356    6.24426
       O    13.29938   -5.92292    5.51661
      H1    13.47886   -6.44439    4.70621
       H     8.97736   -1.84710    8.92453
       O     8.69238   -1.68297    9.86198
      H1     8.70504   -2.56728   10.32969
       H    13.31708   -5.43927   13.37268
       O    13.16824   -6.07459   12.65708
      H1    12.57420   -6.69686   13.06812
       H    18.84922   -3.28031    6.70664
       O    19.05239   -2.36546    6.82605
      H1    19.64912   -2.06747    6.15281
       H    14.39443   -9.12262   11.26859
       O    13.60858   -9.70688   11.25754
      H1    13.86551  -10.54488   10.78399
       H     9.98245   -2.71490    7.20975
       O     9.65102   -1.79385    7.23404
      H1     8.88124   -1.83769    6.68098
       H    12.85137   -2.00183    8.46767
       O    12.46526   -1.28844    7.82553
      H1    11.56257   -1.44025    7.89970
       H    17.80783   -9.37668    7.12402
       O    17.13205   -8.61219    7.29462
      H1    17.63675   -7.79835    7.30851
       H    19.16810   -6.60666    9.51129
       O    19.87775   -6.26774    8.89640
      H1    20.07461   -5.34334    9.20021
       H    15.08914   -0.81988    4.03810
       O    14.56878   -1.61466    3.87100
      H1    13.65734   -1.26671    3.93661
       H    12.82166   -3.20540   14.30952
       O    13.29434   -3.96616   14.74870
      H1    13.45328   -3.65377   15.67521
       H    10.43576   -6.23887    7.41309
       O    10.12712   -7.17254    7.41868
      H1    10.33965   -7.58111    8.28034
       H    17.97682   -5.43549   12.20471
       O    17.39839   -4.89001   11.70606
      H1    16.95668   -4.42706   12.39032
       H    15.21290   -3.39469   14.33133
       O    15.95071   -3.28780   13.74413
      H1    16.22166   -2.36188   13.62053
       H    12.28795   -4.41749    9.50139
       O    12.74591   -4.38712    8.66035
      H1    13.75101   -4.48288    8.89389
       H    12.62045    1.86868    9.78768
       O    13.13362    1.17957    9.37645
      H1    12.67596    0.55998    8.79183
       H    14.78975   -7.08690   11.65522
       O    15.39196   -7.75133   11.40312
      H1    15.90121   -8.12835   12.18592
       H    17.58565   -8.25762    9.18260
       O    17.86988   -7.67527    9.92809
      H1    17.08084   -7.59307   10.55994
       H    10.45451   -4.72354   10.90697
       O    11.42842   -4.90365   10.95013
      H1    11.67007   -4.79877   11.86905
       H    11.63800   -1.25178   13.90614
       O    11.79665   -2.14040   13.55734
      H1    12.14394   -1.91839   12.71412
       H    10.63254   -0.56566    5.94509
       O    10.58295    0.24160    5.39172
      H1     9.85145   -0.05890    4.80696

