123
frame 4 | Written by MDAnalysis XYZWriter (release 2.4.3)
       H     9.20507    4.76990   -8.85001
       O     9.97043    5.23669   -8.61650
      H1     9.79160    5.42658   -7.69162
       H    13.19066    4.19478    2.04396
       O    13.80009    4.45916    1.33608
      H1    14.56604    4.79211    1.79525
       H    12.31234    5.62583   -6.57185
       O    11.96141    5.06650   -5.86149
      H1    12.35931    5.51660   -5.08709
       H     7.90231    9.35820   -5.91460
       O     7.37925   10.09021   -5.64076
      H1     6.47994   10.02860   -6.03826
       H    14.76832    2.79222   -6.24342
       O    14.71076    2.98137   -5.28003
      H1    14.69565    3.98787   -5.30239
       H    12.01610    6.45221   -1.72222
       O    12.07271    6.68032   -0.77340
      H1    11.28863    7.01899   -0.34342
       H    10.22607    3.14832   -1.94885
       O    10.95948    3.78322   -2.06728
      H1    11.41658    3.51837   -2.84618
       H     7.74876    9.90198   -2.26984
       O     7.82440    9.35677   -3.01341
      H1     7.34052    9.79803   -3.70608
       H     5.28843    2.20873   -0.13737
       O     6.10522    2.39572   -0.64493
      H1     5.93910    3.02426   -1.37897
       H     9.68916    1.89316   -7.14200
       O     8.77975    1.53137   -7.37710
      H1     8.67435    1.79513   -8.24136
       H     4.49166    3.34357   -4.32963
       O     3.61156    3.23878   -4.69063
      H1     3.05973    3.30797   -3.94753
       H     9.11419   10.12385   -0.10486
       O     8.25447   10.39743   -0.37307
      H1     8.09819   11.16391    0.19326
       H    11.78688   10.76150   -2.24263
       O    12.03054    9.86855   -2.58633
      H1    11.44534    9.53578   -3.24663
       H    10.37326    4.81157    1.39166
       O    10.18036    4.05949    0.78907
      H1    10.86054    4.20233    0.16176
       H     7.31083    6.91955    3.71091
       O     6.56924    6.65803    3.12442
      H1     6.91195    6.38978    2.30156
       H     5.31159    8.04973    0.12069
       O     5.99195    8.45735    0.64745
      H1     6.06970    9.38748    0.43268
       H     8.05268    7.77883    0.23826
       O     8.91513    7.33385    0.04757
      H1     8.67412    6.40436    0.07296
       H    10.23051    0.81889   -2.16732
       O     9.51675    1.51418   -2.13103
      H1     8.74365    1.09730   -2.50673
       H    12.68682    0.48177   -1.17957
       O    12.03792    0.45649   -1.89825
      H1    11.63091   -0.46000   -1.88560
       H    12.05289    1.43583    1.27193
       O    11.30876    1.50144    1.87697
      H1    10.68114    2.12925    1.47914
       H    13.16933    2.53027   -4.23418
       O    12.29670    2.12724   -4.08299
      H1    12.30447    1.84940   -3.15840
       H     5.62180    5.20195   -6.60366
       O     6.16213    4.53841   -7.07206
      H1     6.37652    3.89277   -6.39869
       H    10.06187    8.28109   -6.28473
       O     9.52013    8.28999   -7.08432
      H1     9.05219    7.43640   -7.16366
       H    13.49123    5.40081   -2.89224
       O    12.91568    6.12589   -3.25130
      H1    13.44038    6.78492   -3.75164
       H     9.36032    5.23516   -5.04304
       O     9.16404    4.73514   -5.86486
      H1    10.04683    4.48044   -6.15833
       H     7.03594    6.23385   -7.77649
       O     7.42292    6.90244   -8.38077
      H1     6.60768    7.40044   -8.66171
       H     7.12232    1.80563   -3.70497
       O     6.92850    1.09749   -3.08742
      H1     6.67401    1.54852   -2.28677
       H    11.63518    2.53937   -5.73346
       O    11.34173    2.18841   -6.63405
      H1    11.80941    2.70688   -7.32020
       H     4.59845    7.32976   -5.08569
       O     5.16223    7.89211   -4.60370
      H1     4.66727    8.72438   -4.30335
       H     4.50343    4.47995   -1.85842
       O     5.28421    4.26168   -2.35659
      H1     5.78991    5.02720   -2.47135
       H     7.04483    7.80669   -2.38033
       O     6.48267    7.02333   -2.45409
      H1     6.09301    7.15521   -3.29162
       H     9.91977    7.09181    1.50003
       O    10.28055    6.48376    2.17456
      H1    11.13999    6.93615    2.48762
       H    14.95176    6.85426    0.19834
       O    14.30427    7.59400    0.28308
      H1    13.46231    7.29709   -0.08038
       H    13.62090    9.53013   -1.98293
       O    14.58381    9.45217   -1.85826
      H1    14.73402    8.74792   -1.25245
       H    14.82155    7.42646   -4.43715
       O    14.12821    8.14062   -4.36125
      H1    14.36759    8.61169   -3.59779
       H     7.67724    2.17836   -6.20416
       O     7.28247    2.77330   -5.47516
      H1     7.92507    3.54622   -5.55173
       H    10.33144    7.60437   -3.60393
       O    10.28462    8.51581   -3.91311
      H1     9.47545    8.78721   -3.56452
       H    15.38687    4.09292   -1.82199
       O    14.46141    4.33154   -1.91578
      H1    14.13464    4.54097   -1.05917
       H     6.85789    4.60824    0.76348
       O     7.60411    5.17777    1.11161
      H1     8.27759    4.48205    1.05516
       H     9.74070    5.40448   -2.69131
       O     9.29362    6.12890   -3.15780
      H1     8.55718    6.41864   -2.63432
       H     9.24057    0.95558   -0.29439
       O     9.37766    0.29150    0.38187
      H1    10.08592    0.60294    0.92542

