123
frame 3 | Written by MDAnalysis XYZWriter (release 2.4.3)
       H   -10.81781  -15.92720   -8.06777
       O   -10.39077  -16.36362   -8.81147
      H1    -9.98129  -17.15248   -8.51041
       H   -18.46283  -15.60925   -9.75184
       O   -19.20807  -15.32390  -10.31846
      H1   -18.81054  -15.38468  -11.25093
       H   -18.34340  -12.36447  -10.94761
       O   -17.43351  -12.44681  -11.33197
      H1   -16.96893  -11.61014  -11.14768
       H   -11.47142  -14.99217  -11.62580
       O   -11.19474  -14.61849  -10.75191
      H1   -10.78266  -15.33862  -10.25077
       H   -14.02804  -17.90815   -8.34756
       O   -14.44322  -17.42713   -7.59456
      H1   -15.34398  -17.20561   -7.91687
       H   -13.17538   -9.51658  -10.15929
       O   -13.65518   -9.69861  -10.97318
      H1   -14.61722   -9.69496  -10.76200
       H    -9.93098  -11.36105   -9.76914
       O    -9.23294  -11.27603   -9.05292
      H1    -9.47886  -11.99911   -8.37354
       H   -12.66577  -16.24421  -13.24980
       O   -11.74670  -15.85329  -13.15921
      H1   -11.36935  -15.40856  -13.89942
       H   -17.30084  -15.98925   -7.41926
       O   -16.93715  -16.43035   -8.19637
      H1   -16.55926  -15.69279   -8.67511
       H   -10.66967  -13.77862   -7.22002
       O   -10.02321  -13.09210   -7.28034
      H1    -9.80058  -12.87139   -6.36959
       H   -16.96062  -12.33585  -16.24568
       O   -17.43493  -12.98045  -15.64456
      H1   -17.50346  -12.36731  -14.91812
       H   -17.89044  -15.19172   -3.51003
       O   -18.89358  -15.11949   -3.42635
      H1   -19.15033  -15.99725   -3.32397
       H   -14.24242  -10.30630  -12.65853
       O   -14.59528  -10.87338  -13.37718
      H1   -15.02705  -10.23509  -13.92376
       H   -16.81143   -9.12964  -11.24885
       O   -16.45575   -9.90112  -10.81290
      H1   -16.89823  -10.05751   -9.97828
       H   -13.87412  -12.04040  -12.31854
       O   -13.68836  -12.70470  -11.59112
      H1   -12.77026  -12.60667  -11.39713
       H   -12.64120   -9.83317   -8.09978
       O   -12.71828   -8.95373   -8.57687
      H1   -13.35540   -8.50033   -8.00097
       H   -17.89421  -18.76268   -7.75014
       O   -18.83298  -19.06602   -7.60974
      H1   -19.43103  -18.38401   -7.30074
       H   -19.01153   -7.68275   -9.05091
       O   -18.32996   -8.12383   -8.48075
      H1   -18.57632   -7.98953   -7.54447
       H   -17.51867  -14.93065  -12.89080
       O   -18.43324  -15.17724  -12.97921
      H1   -18.42596  -15.65194  -13.86035
       H   -12.31964  -10.69923   -5.98284
       O   -12.21364  -10.44048   -5.04389
      H1   -13.00855   -9.95289   -4.83425
       H   -14.11824  -13.42454  -15.75692
       O   -14.93281  -13.94297  -15.56999
      H1   -15.58163  -13.30101  -15.25929
       H   -16.68633  -10.22625   -6.47082
       O   -16.63665   -9.63950   -5.73698
      H1   -17.49899   -9.16040   -5.81454
       H   -14.90960  -19.16606  -10.86990
       O   -15.43676  -19.91319  -11.07301
      H1   -16.33574  -19.57979  -11.25609
       H   -10.43980  -11.50726  -11.93843
       O   -10.92054  -11.92478  -11.17992
      H1   -10.73754  -12.92707  -11.20072
       H   -13.10846   -8.40158  -11.79696
       O   -12.97576   -7.49001  -12.14755
      H1   -12.39692   -7.67864  -12.92804
       H   -15.23064  -13.98206  -12.18045
       O   -15.64386  -14.70501  -12.75940
      H1   -15.43181  -14.55538  -13.68561
       H   -16.22580  -10.77238   -4.42887
       O   -15.73955  -11.48241   -4.07064
      H1   -16.13184  -11.93078   -3.29508
       H   -17.69133  -10.33005  -13.73962
       O   -17.97675  -11.22214  -13.62036
      H1   -17.64147  -11.49091  -12.76698
       H   -12.79091  -18.95299  -10.27480
       O   -13.57627  -18.43327   -9.97976
      H1   -13.59286  -17.60255  -10.43413
       H   -12.17653  -12.01495   -4.01949
       O   -12.32657  -12.92184   -3.85652
      H1   -11.40261  -13.26973   -3.82533
       H   -12.61990  -15.33244   -6.29478
       O   -11.67031  -15.34377   -6.55224
      H1   -11.08325  -15.36347   -5.82205
       H   -11.60100  -11.81968   -7.64354
       O   -12.37579  -11.25968   -7.50902
      H1   -13.15902  -11.69517   -7.82609
       H   -15.38765  -19.14395   -5.17413
       O   -15.29970  -18.24305   -4.75596
      H1   -15.39887  -17.52354   -5.45873
       H   -15.43317  -12.80482   -8.47029
       O   -15.11526  -12.00454   -7.97632
      H1   -15.95613  -11.55492   -8.05418
       H   -14.39707  -17.60373  -13.50425
       O   -14.08590  -16.91063  -12.93159
      H1   -14.75241  -16.23293  -12.90051
       H   -15.07817  -14.41536   -9.67034
       O   -15.91298  -14.08263   -9.40855
      H1   -16.29297  -13.53381  -10.13996
       H   -15.72295  -15.74568   -3.22641
       O   -16.38189  -15.82722   -3.91977
      H1   -16.55553  -16.78032   -3.95765
       H   -13.02777  -15.26378  -10.19723
       O   -13.88063  -15.60930   -9.93188
      H1   -13.72923  -16.04591   -9.06335
       H   -18.23149  -11.21929   -8.02526
       O   -17.55204  -10.58697   -8.33404
      H1   -17.94328   -9.65851   -8.36336
       H   -13.46623  -14.28351   -2.75506
       O   -13.92624  -15.12929   -2.56441
      H1   -14.02642  -15.50021   -3.44576
       H   -14.55927  -13.38825   -6.51206
       O   -14.03335  -14.03032   -5.88806
      H1   -13.75064  -13.47521   -5.15322

