123
frame 3 | Written by MDAnalysis XYZWriter (release 2.4.3)
       H    -1.02419  -15.83124  -10.51186
       O    -1.99074  -15.93717  -10.56541
      H1    -2.38826  -15.04103  -10.61764
       H     1.71197  -12.19315   -6.18593
       O     1.07836  -12.62506   -6.77631
      H1     0.36182  -13.04549   -6.21651
       H    -5.04408  -11.84405  -16.02373
       O    -4.69917  -12.72075  -15.63925
      H1    -4.26222  -13.27605  -16.34086
       H    -6.38130  -10.92773  -10.52124
       O    -6.27352   -9.98259  -10.85490
      H1    -5.34371   -9.79941  -10.81131
       H     0.52684   -9.86538  -12.03719
       O     0.81602   -9.52926  -12.89868
      H1     0.53873  -10.16681  -13.61997
       H     0.81856   -6.99506  -10.50173
       O    -0.04906   -6.71103  -10.14552
      H1    -0.49780   -6.36716  -10.97719
       H    -2.05410  -11.28038  -17.29481
       O    -1.48139  -12.04000  -17.58192
      H1    -1.66466  -12.15343  -18.54823
       H    -5.34850  -14.90262  -11.81294
       O    -4.99199  -14.05329  -12.07975
      H1    -5.77568  -13.48403  -12.08401
       H     2.05467   -7.90787  -11.98342
       O     2.25275   -7.53015  -11.12103
      H1     3.23731   -7.59796  -11.09131
       H    -5.87907   -9.21869  -14.64840
       O    -5.92744   -9.86195  -15.36055
      H1    -6.84635  -10.02250  -15.53215
       H    -5.09896  -16.43620  -14.73520
       O    -5.63903  -15.62597  -14.93227
      H1    -5.04772  -14.84741  -14.72966
       H    -2.97212  -11.42652   -3.97952
       O    -3.07378  -12.05559   -4.76670
      H1    -2.69396  -11.71906   -5.59395
       H    -3.79934   -8.95924  -12.23054
       O    -3.69090   -9.04403  -11.26659
      H1    -3.17967   -8.26092  -11.00743
       H     2.10520  -11.28677   -8.69702
       O     2.97358  -10.98123   -8.76904
      H1     2.87351  -10.38922   -9.55212
       H    -5.70921  -11.81699  -13.85056
       O    -6.49877  -11.91748  -13.28905
      H1    -6.70570  -11.10171  -12.84613
       H    -7.08111   -8.30305  -12.19929
       O    -7.60405   -8.23617  -13.02775
      H1    -7.36785   -7.36565  -13.43055
       H    -7.72057   -8.05037  -10.13630
       O    -7.13296   -7.28888  -10.03104
      H1    -6.35672   -7.69059   -9.57715
       H    -4.20121  -14.00918   -7.23796
       O    -4.38269  -14.78803   -6.69908
      H1    -4.79521  -14.48540   -5.83278
       H    -3.96453  -13.58565  -10.69335
       O    -3.12004  -13.56710  -10.23726
      H1    -3.14205  -13.08558   -9.45155
       H     1.19733  -13.46116  -15.85584
       O     0.72954  -13.51902  -16.67758
      H1    -0.15741  -13.09911  -16.57680
       H    -4.04773   -9.52389  -17.05340
       O    -3.23103   -9.45803  -16.56423
      H1    -3.41080   -9.37478  -15.58689
       H     0.32854  -13.89226  -12.78013
       O     0.41149  -13.72195  -13.71358
      H1    -0.42785  -13.34414  -13.83559
       H    -1.24313   -7.75038  -14.67051
       O    -1.02565   -7.50304  -13.74736
      H1    -0.41323   -8.16561  -13.38027
       H    -0.97029  -10.88991  -10.77448
       O    -0.03563  -10.77860  -10.42809
      H1     0.31250  -11.69634  -10.45798
       H    -3.54178   -7.97504  -13.97190
       O    -3.25632   -8.87227  -14.01061
      H1    -2.31187   -8.74984  -14.02965
       H    -4.37250   -5.86983   -9.06363
       O    -4.34185   -6.68919   -8.57689
      H1    -3.53930   -7.18630   -8.80186
       H    -3.09637  -11.40358   -7.91090
       O    -3.61441  -12.20794   -7.77195
      H1    -4.47168  -11.85253   -7.56955
       H    -0.61917  -10.81451   -7.01934
       O    -1.49958  -10.33031   -7.11088
      H1    -1.56283   -9.46969   -6.60047
       H    -2.64011  -10.59291  -11.38319
       O    -2.28797  -11.51785  -11.59382
      H1    -2.65819  -12.20025  -10.98097
       H    -3.15799   -5.77605  -11.00843
       O    -2.53246   -6.44691  -11.33534
      H1    -2.48556   -6.42515  -12.30232
       H    -3.22723   -5.72865  -14.64822
       O    -3.76644   -6.24165  -14.01518
      H1    -4.73099   -6.13991  -14.34272
       H     1.37934  -13.04091  -10.41019
       O     0.49156  -13.37439  -10.42564
      H1     0.56030  -14.04937   -9.74700
       H     0.64119   -7.50963   -6.89732
       O     0.02169   -6.86240   -7.04440
      H1    -0.65806   -7.19349   -7.62201
       H    -6.84529  -11.11569   -6.96691
       O    -6.39325  -11.92109   -7.32330
      H1    -6.63793  -11.97511   -8.29842
       H    -2.96905  -12.19137  -14.53242
       O    -2.02529  -12.32303  -14.31832
      H1    -2.07140  -12.22439  -13.35483
       H    -1.19290   -7.89909   -9.46092
       O    -1.89588   -8.20409   -8.85866
      H1    -1.60161   -9.06678   -8.57344
       H    -2.40475   -7.91241  -16.43984
       O    -1.98054   -7.03002  -16.33686
      H1    -1.39799   -6.93926  -17.08575
       H    -0.00199   -5.88964  -14.00303
       O     0.26025   -4.97571  -14.04939
      H1     0.69803   -4.86216  -14.90523
       H    -7.35214  -13.46264   -9.88708
       O    -7.10676  -12.51355   -9.93477
      H1    -7.90789  -12.07281   -9.65819
       H    -0.70391  -11.09471  -15.08039
       O    -0.04191  -10.40757  -15.17913
      H1     0.69475  -10.63546  -15.79379
       H     2.97878  -11.97554  -12.25202
       O     3.10085  -11.03872  -12.49188
      H1     2.40932  -10.71340  -13.08610

