123
frame 7 | Written by MDAnalysis XYZWriter (release 2.4.3)
       H    13.96786  -12.73873    3.53463
       O    13.20309  -12.53783    3.01898
      H1    12.49360  -13.18433    3.09739
       H    17.30906  -13.72428   -6.57272
       O    16.90975  -14.19385   -7.31527
      H1    16.85165  -13.54705   -8.05959
       H    16.68457  -14.43047    0.20712
       O    16.59040  -13.66540   -0.35266
      H1    16.62002  -14.01315   -1.28719
       H    18.13394   -9.29849   -9.12990
       O    18.05926  -10.09339   -8.58151
      H1    17.88653   -9.80389   -7.69997
       H    19.06594  -14.06297    0.41220
       O    19.63436  -13.33599    0.14381
      H1    19.82386  -12.89988    1.03093
       H    13.89632   -7.42556    3.67547
       O    13.79050   -6.83007    4.41586
      H1    14.62290   -6.75300    4.85931
       H    14.09562   -9.99646   -0.32838
       O    13.37588   -9.40053   -0.47827
      H1    12.74279   -9.93412   -1.02919
       H    18.50816   -9.86414   -0.77987
       O    18.23410   -9.34468   -0.01024
      H1    17.39431   -9.79501    0.28537
       H    18.50066   -5.76100   -4.22361
       O    19.43172   -5.89585   -3.95002
      H1    19.50166   -5.80624   -3.03984
       H    13.90580  -12.35625    1.41225
       O    14.26502  -12.19069    0.52416
      H1    15.12644  -12.69525    0.44344
       H    14.08845   -3.29862   -2.75125
       O    14.43618   -3.26909   -1.82459
      H1    14.38004   -4.19666   -1.57857
       H    18.44762  -12.14309    4.35856
       O    17.78701  -11.59588    4.76652
      H1    17.82588  -10.75740    4.24963
       H    15.01350  -12.74934    5.73935
       O    15.35677  -12.82410    4.88116
      H1    16.28311  -12.45977    4.86128
       H    16.80518  -11.54736   -4.32543
       O    16.56686  -11.05125   -3.51858
      H1    16.10409  -10.16216   -3.70143
       H    15.25347  -10.54435    1.30544
       O    15.85634   -9.76888    1.08802
      H1    16.21788   -9.41182    1.93934
       H    17.76610   -8.16158    3.16378
       O    17.14442   -8.89105    3.42399
      H1    16.52914   -8.36644    3.89541
       H    12.63489   -6.51224   -1.11546
       O    13.17113   -5.74158   -0.89261
      H1    13.79287   -6.12755   -0.25856
       H    13.17379  -13.01970   -0.56940
       O    12.44535  -13.42099   -1.03056
      H1    12.49067  -14.35898   -0.74431
       H    14.22080  -11.77002   -7.34628
       O    14.57833  -11.07743   -6.72567
      H1    15.53319  -11.11276   -6.90226
       H    14.36143   -8.85994   -1.90606
       O    14.90650   -8.63626   -2.65851
      H1    15.53913   -7.98378   -2.33693
       H    12.09655   -8.44334   -0.97589
       O    11.42792   -7.78742   -1.24953
      H1    11.25935   -8.04763   -2.14118
       H    16.83140  -15.36382   -3.25679
       O    16.92653  -14.49174   -2.94583
      H1    16.19061  -14.04486   -3.37757
       H    13.13948   -9.75652   -5.23883
       O    13.37813   -8.84945   -5.09183
      H1    13.87558   -8.75499   -4.23696
       H    14.44188  -13.74182   -5.33971
       O    14.48375  -14.21546   -6.18318
      H1    15.33334  -14.30428   -6.57657
       H    19.53330   -3.47413    3.29560
       O    18.63808   -3.55106    2.90105
      H1    18.25010   -2.94708    3.53795
       H    16.86893   -4.25441   -3.87955
       O    16.71943   -5.14748   -4.23106
      H1    15.73132   -5.30093   -4.25186
       H    19.83675  -10.26893    7.11104
       O    18.85669  -10.36287    6.98060
      H1    18.83004  -10.89063    6.21929
       H    14.83081   -8.05402   -6.12023
       O    15.59802   -8.00795   -6.73025
      H1    15.86095   -7.10423   -7.00406
       H    16.26901   -6.11742    0.02910
       O    15.58530   -5.73790    0.69039
      H1    15.92251   -4.84012    0.84940
       H    13.47615  -12.68817   -3.18642
       O    14.18114  -12.63558   -3.81479
      H1    14.68633  -11.88017   -3.49313
       H    19.33523   -6.41220    2.16568
       O    18.79658   -6.49831    2.96780
      H1    18.42350   -5.60010    3.09296
       H    19.32697   -2.16090   -0.77480
       O    18.71382   -2.51782   -0.10687
      H1    18.86782   -2.10351    0.75070
       H    17.44280  -16.78352    1.33188
       O    16.74341  -16.11707    1.38216
      H1    16.67988  -15.83056    2.29806
       H    18.86402  -13.17309   -5.29755
       O    17.95049  -13.11356   -4.98761
      H1    17.79610  -13.63749   -4.15918
       H    13.90619   -5.80560   -3.31301
       O    14.10216   -5.97329   -4.26590
      H1    13.30613   -5.78821   -4.77433
       H    13.42039   -9.13544    1.55620
       O    13.20312   -9.08572    2.49917
      H1    12.44067   -9.58409    2.69920
       H    20.08481  -17.13213   -0.01935
       O    19.18422  -17.37084    0.12168
      H1    18.98537  -18.17006   -0.37956
       H    16.80825   -8.99333   -6.09447
       O    17.44977   -9.70718   -5.88885
      H1    18.08955   -9.31192   -5.26622
       H    17.95518   -6.38272   -1.28306
       O    17.16525   -6.90862   -1.16954
      H1    17.43306   -7.58261   -0.56358
       H    11.82259  -11.95659   -1.91312
       O    11.92867  -11.00459   -2.10868
      H1    11.09704  -10.75551   -2.56359
       H    18.13600  -11.05349   -2.64184
       O    18.83932  -11.17059   -2.00269
      H1    18.61537  -11.94027   -1.46232

