123
frame 3 | Written by MDAnalysis XYZWriter (release 2.4.3)
       H    11.24980    6.67031  -19.83725
       O    11.52899    6.12173  -19.12097
      H1    11.96048    5.36533  -19.52278
       H    11.98768   10.53509  -15.76994
       O    11.49501   11.38871  -15.85802
      H1    12.20035   11.98255  -15.47533
       H    12.75195   15.13330  -16.82979
       O    13.02948   16.00807  -17.05120
      H1    13.90302   15.74482  -17.41709
       H    15.88852   14.11072  -16.73303
       O    15.37612   14.32311  -15.97121
      H1    14.90049   13.50316  -15.69817
       H     9.56730   14.60248  -13.43495
       O     9.21912   15.18269  -14.11034
      H1     8.82674   14.58014  -14.78384
       H     7.63591   18.70341  -18.10266
       O     7.12741   19.56776  -18.03212
      H1     7.69759   20.18134  -18.51130
       H     7.92983   15.36108  -12.58202
       O     7.07872   15.14749  -12.15115
      H1     6.89929   15.89379  -11.54190
       H     5.46777   16.60728  -17.40088
       O     4.85154   16.79222  -18.06059
      H1     4.25018   17.45593  -17.65211
       H    13.43010   12.47778  -11.43358
       O    13.95217   12.95101  -12.12969
      H1    13.68811   13.86858  -12.05297
       H     4.76390   14.11365  -17.43632
       O     5.04523   13.82073  -16.58697
      H1     4.38872   13.16264  -16.29348
       H    13.17978    8.48004  -15.34886
       O    13.28550    9.26442  -15.88790
      H1    13.16382    8.99936  -16.78422
       H    10.57364   13.49965  -11.26917
       O    10.26027   13.64347  -12.14970
      H1    10.10087   12.76952  -12.56083
       H    17.18794   13.79899  -15.42479
       O    17.95247   13.45731  -14.98396
      H1    17.68876   13.17769  -14.10030
       H    10.36807   18.23567  -14.70663
       O    10.87634   17.38987  -14.97893
      H1    10.24452   16.72682  -14.65217
       H     8.44555    7.95135  -17.30950
       O     8.48461    8.78490  -16.90541
      H1     9.06069    9.33514  -17.41286
       H    17.80553   10.30588  -17.66590
       O    16.84432   10.55414  -17.72092
      H1    16.82290   11.49920  -18.04355
       H    11.65470    6.17705  -16.38118
       O    12.32702    6.40129  -15.79363
      H1    13.18747    6.06757  -16.03868
       H    12.68734    9.69605  -13.20056
       O    11.69945    9.77478  -13.10240
      H1    11.47687    8.94650  -12.59558
       H     5.35606   10.03083  -15.25583
       O     4.82679    9.55700  -15.86947
      H1     5.12553    9.87294  -16.74475
       H     7.92359   13.09206  -15.94745
       O     7.77985   13.98885  -16.20667
      H1     6.79684   14.05650  -16.27884
       H    14.80212   10.16498  -15.65076
       O    15.51667   10.78957  -15.45841
      H1    16.04590   10.76276  -16.30031
       H     8.65145   17.42651  -19.38156
       O     8.71369   17.46986  -18.40919
      H1     9.62312   17.68348  -18.18273
       H    15.34871    7.63764  -19.41520
       O    15.49871    6.73297  -19.17323
      H1    16.40709    6.51365  -19.16282
       H    14.30058   12.11310  -15.05363
       O    13.63565   12.72779  -14.86224
      H1    13.76901   12.85752  -13.91825
       H     5.80685   13.27142  -18.72295
       O     6.46170   13.00047  -19.39113
      H1     7.33596   13.31439  -19.14226
       H     9.54640   14.76174  -19.08269
       O     9.30858   14.01773  -18.54916
      H1     8.77675   14.36948  -17.81772
       H     8.44017    6.43574  -19.24721
       O     8.82673    6.09319  -18.40822
      H1     9.75943    6.00791  -18.56186
       H    12.55645   16.73291  -18.57490
       O    12.38642   17.13569  -19.42278
      H1    13.25974   17.23828  -19.86456
       H    14.77684   15.55175  -14.38822
       O    14.27057   16.34555  -14.23458
      H1    13.88155   16.32568  -15.07657
       H     9.07684   10.29720  -19.22604
       O     9.94453   10.26388  -18.71819
      H1    10.28933   11.16519  -18.58561
       H    10.11340   11.24116  -14.05779
       O     9.33828   11.49047  -13.56001
      H1     9.32189   10.89917  -12.83676
       H    13.54065   19.32257  -14.45715
       O    12.66378   19.35533  -13.95924
      H1    12.16216   18.50391  -14.20279
       H     8.85797    8.20674  -15.12154
       O     9.40886    7.96817  -14.36327
      H1    10.05621    8.70409  -14.26296
       H     6.38215   11.52712  -18.21532
       O     6.25815   10.57933  -18.11825
      H1     6.76122   10.19323  -18.84062
       H     6.08299   11.31715  -13.96136
       O     5.29899   11.00790  -13.59966
      H1     5.53554   10.65981  -12.74113
       H    11.75449   15.09776  -12.49601
       O    12.62536   15.38696  -12.30949
      H1    13.02796   15.54701  -13.18832
       H    11.85745    9.12479  -18.60825
       O    12.67207    8.54788  -18.54153
      H1    12.37094    7.65673  -18.32874
       H    14.88035   18.65163  -16.39152
       O    14.78534   18.26092  -17.28432
      H1    13.91184   17.75839  -17.28569
       H    10.74090   13.13917  -18.38445
       O    11.51699   12.58808  -18.31849
      H1    11.67729   12.34143  -17.36168
       H     8.00195   11.25603  -14.80100
       O     7.30347   11.31865  -15.42928
      H1     7.30505   10.53536  -16.01230
       H    16.49649   13.76435  -19.27168
       O    16.86114   13.44508  -18.42937
      H1    17.76530   13.57837  -18.34276

