123
frame 11 | Written by MDAnalysis XYZWriter (release 2.4.3)
       H    18.80830    4.30838   -7.13786
       O    19.31748    3.48077   -7.10942
      H1    19.01197    2.90231   -7.79317
       H    13.70547    0.96049  -14.91683
       O    14.27830    0.43998  -15.50833
      H1    15.18688    0.78519  -15.37260
       H    13.37317   -7.63513   -8.28345
       O    13.39360   -8.30554   -7.57398
      H1    14.35360   -8.44795   -7.38999
       H    12.35534   -0.24929  -10.65925
       O    11.61449    0.28265  -10.34578
      H1    11.63172    1.14843  -10.79317
       H    13.13810    0.20012   -7.15363
       O    13.25908    0.13489   -8.12960
      H1    12.40070    0.02859   -8.51109
       H    14.98337    2.72860   -5.63631
       O    14.65844    2.79520   -4.72804
      H1    14.10885    3.55196   -4.69755
       H    17.40396   -4.06430  -11.93871
       O    17.10807   -4.93206  -12.24082
      H1    16.88090   -5.47854  -11.46906
       H    15.81686   -5.73730  -13.46955
       O    15.16339   -5.96242  -14.14446
      H1    14.32309   -6.07472  -13.75018
       H    17.35433    0.39687  -14.79297
       O    16.92712    1.11979  -15.27346
      H1    17.00121    0.88691  -16.20925
       H    16.11163   -1.49920   -4.24258
       O    16.24517   -0.67740   -3.78668
      H1    15.37157   -0.41385   -3.49353
       H    19.46506   -1.33460   -8.91420
       O    19.54203   -0.81348   -8.08715
      H1    18.72891   -0.86302   -7.50775
       H    11.03192   -3.99633  -11.03814
       O    10.88937   -4.48282  -11.83788
      H1    11.02136   -3.86510  -12.51760
       H    15.69105   -4.05477  -13.93314
       O    15.98512   -3.17363  -14.04860
      H1    16.17816   -2.98407  -14.98268
       H    10.39204   -1.99764  -13.04627
       O    10.93660   -2.52323  -13.69111
      H1    11.83018   -2.23659  -13.61505
       H    19.08250   -0.17416  -13.79591
       O    18.27864   -0.67396  -13.88543
      H1    18.60087   -1.29475  -14.53567
       H    13.43935   -1.81301  -12.27459
       O    13.23136   -1.65398  -11.30159
      H1    12.69886   -2.37654  -10.92529
       H    16.02841   -9.14624   -8.45658
       O    16.11267   -8.20673   -8.27406
      H1    16.51219   -8.17279   -7.36270
       H    18.02178   -1.74600  -12.55321
       O    18.05166   -2.25178  -11.67798
      H1    17.14660   -2.30296  -11.34567
       H    15.35683   -8.02476   -4.61030
       O    15.61635   -8.00933   -5.52251
      H1    15.74876   -7.11157   -5.73336
       H    19.52274    0.89795   -8.91316
       O    19.77283    1.66651   -9.42518
      H1    18.99067    1.71992   -9.98899
       H    15.98610   -1.95429   -9.63271
       O    15.67815   -1.83470  -10.58394
      H1    14.72418   -1.68570  -10.63189
       H    13.52405    1.70898   -5.09210
       O    12.85181    0.99952   -5.38884
      H1    12.32471    0.84476   -4.59908
       H    13.18274    2.63270  -14.51271
       O    12.96921    1.97722  -13.82583
      H1    13.77479    1.94564  -13.34552
       H    12.08657   -4.93855   -7.73948
       O    12.86300   -4.94037   -8.27260
      H1    13.41860   -4.25825   -7.82163
       H    12.82738   -2.60007   -6.31697
       O    13.54390   -2.67765   -6.91117
      H1    13.74233   -1.84336   -7.41263
       H    17.29281    2.93597  -11.23485
       O    17.53704    2.03484  -11.51132
      H1    16.75182    1.65803  -11.91909
       H    10.28178   -0.05924  -11.40981
       O     9.66696   -0.18849  -12.20057
      H1     8.83610   -0.55345  -11.85087
       H    11.70085   -3.45673   -8.78296
       O    11.16567   -2.88721   -9.39992
      H1    11.22363   -2.00441   -8.97319
       H    15.91536   -8.33307  -11.07215
       O    16.23140   -7.44484  -10.82711
      H1    16.25965   -7.53033   -9.83358
       H    18.71604    0.73648   -5.57289
       O    17.98759    0.42240   -6.14524
      H1    17.45741   -0.13493   -5.51563
       H    19.48786   -4.96036   -8.93958
       O    18.55700   -5.19709   -8.69833
      H1    18.53288   -6.08673   -9.04999
       H    15.22634   -2.93572   -5.95940
       O    16.20300   -2.86236   -5.76678
      H1    16.35539   -3.45387   -4.99758
       H    13.72850   -8.53271  -11.77661
       O    13.25131   -7.64815  -11.90948
      H1    13.72588   -7.07628  -11.21611
       H    18.36258   -4.86012  -13.84453
       O    19.23566   -5.16900  -14.17406
      H1    19.08021   -5.83014  -14.81881
       H    15.77815    1.98934   -8.36902
       O    16.06969    2.10917   -7.38788
      H1    16.72171    1.41284   -7.15993
       H    16.08897    3.81430   -7.21361
       O    15.80047    4.75001   -7.29246
      H1    14.93246    4.73925   -7.74286
       H    15.54291   -0.11076  -11.96733
       O    15.21642    0.73317  -12.32056
      H1    14.77404    1.17943  -11.60734
       H    14.63312   -2.33715  -13.86792
       O    13.75630   -1.87420  -13.92904
      H1    13.89489   -1.03088  -14.46772
       H    13.76314    1.79946   -9.43449
       O    14.62196    2.05973   -9.90868
      H1    14.38742    2.93176  -10.22171
       H    16.79625   -2.53436   -7.40426
       O    17.09184   -2.54439   -8.29092
      H1    17.57682   -3.43982   -8.36111
       H    16.32907   -4.58852   -6.71240
       O    16.20588   -5.54643   -6.58184
      H1    15.46415   -5.83303   -7.12877

