123
frame 12 | Written by MDAnalysis XYZWriter (release 2.4.3)
       H     1.96443   15.55451  -10.77305
       O     0.97499   15.29534  -10.94654
      H1     0.48108   16.14413  -10.80122
       H     2.74724   15.23775  -15.10544
       O     3.54405   14.66909  -14.91699
      H1     4.05960   14.53441  -15.70650
       H    -5.30052   13.80182   -9.83512
       O    -4.89666   12.93007  -10.03770
      H1    -5.01968   12.73815  -11.03519
       H    -4.30159   14.44985  -16.86343
       O    -4.39773   14.13500  -15.92870
      H1    -3.58165   14.37754  -15.54419
       H    -3.47386   16.83084  -12.76067
       O    -3.16405   17.57066  -13.35393
      H1    -2.77258   17.14314  -14.17170
       H    -0.43781    8.85895   -9.09038
       O    -0.74250    8.71461   -8.17673
      H1    -1.63240    9.11403   -8.16488
       H    -0.48213   14.46292  -14.65233
       O     0.21261   14.77945  -15.20564
      H1     0.53192   13.92050  -15.54935
       H     0.93017   12.30624  -13.15482
       O     0.22998   11.67618  -13.22761
      H1    -0.32264   11.71734  -12.46603
       H     1.85004   13.85139  -12.42556
       O     2.47373   13.27273  -12.86189
      H1     2.71191   13.75631  -13.67668
       H     5.36395   15.39883  -12.04577
       O     5.52177   15.17520  -12.97571
      H1     4.66937   15.04924  -13.35097
       H    -0.82834   15.17897  -18.19276
       O    -0.74975   15.74635  -17.41136
      H1    -0.35219   15.22169  -16.67523
       H    -0.99874    8.63553  -14.21233
       O    -1.74457    9.00234  -13.71511
      H1    -1.50318    8.89618  -12.80028
       H    -3.09376    7.92997  -13.19971
       O    -3.64325    7.63570  -12.44330
      H1    -4.35738    7.14235  -12.88557
       H    -3.41236   11.77324  -13.13906
       O    -2.69441   11.85716  -13.76304
      H1    -2.02706   11.18192  -13.59199
       H    -1.80928    7.07698  -15.87006
       O    -2.57663    7.17900  -16.53039
      H1    -2.17273    6.93021  -17.34397
       H     1.72012    9.41816  -12.46163
       O     1.66668    9.23531  -13.41362
      H1     1.13417    9.93568  -13.71695
       H    -0.65654    9.86994  -17.43417
       O     0.19746    9.94802  -16.93362
      H1     0.92425    9.60981  -17.57245
       H     3.68091   10.66659   -8.97631
       O     4.49282   10.26727   -9.27101
      H1     5.22417   10.90765   -9.14421
       H     4.43733   13.53251  -10.13120
       O     4.25991   12.74263  -10.69765
      H1     3.87326   13.05202  -11.51317
       H     0.38263   14.50332   -6.45962
       O    -0.11457   14.96595   -7.17248
      H1    -0.07341   14.35975   -7.90456
       H     2.10310    8.20398   -9.96987
       O     1.73806    8.90005  -10.54485
      H1     1.84189    9.70719   -9.99087
       H     4.33610    9.51601  -11.21404
       O     4.63604    9.19541  -12.06948
      H1     3.90005    9.23406  -12.63097
       H     0.62954   16.20186  -13.87951
       O     0.74649   17.21412  -13.84299
      H1     0.65121   17.39087  -12.88906
       H    -5.78406   11.59273  -13.04813
       O    -5.40970   12.39791  -12.74770
      H1    -6.03071   13.10538  -12.96090
       H    -1.68795   10.30637  -10.85134
       O    -1.72376   11.28217  -10.70163
      H1    -1.38911   11.45165   -9.88502
       H     0.15418    8.43728  -16.13409
       O    -0.00809    7.80284  -15.41220
      H1     0.74132    7.72116  -14.83831
       H    -0.96313    7.53337  -11.32721
       O    -1.04019    8.45782  -11.23886
      H1    -0.13750    8.75852  -11.17684
       H    -2.94067    4.90809  -10.97734
       O    -2.56908    5.77661  -10.91539
      H1    -2.92971    6.22748  -11.68364
       H    -4.46490   10.26733   -8.23635
       O    -3.77037    9.66012   -8.17707
      H1    -3.89964    9.31894   -7.25532
       H    -2.77933   12.10567  -17.31025
       O    -2.29948   12.66467  -17.93753
      H1    -2.90649   13.35569  -18.27627
       H    -0.63532   13.56957   -9.44848
       O     0.34736   13.35640   -9.30949
      H1     0.91780   13.88438   -9.83537
       H     0.89769   12.67462  -17.39309
       O     1.23568   12.60701  -16.44965
      H1     0.83037   11.88323  -16.01130
       H     4.62633   12.95905  -14.80779
       O     5.00299   12.11935  -14.75611
      H1     5.51899   12.03006  -13.91560
       H    -5.09789   10.36461  -15.06677
       O    -5.98893   10.46993  -14.78420
      H1    -6.21866    9.52204  -14.78863
       H     5.49032   10.67299  -12.37872
       O     6.07258   11.47269  -12.38989
      H1     5.62951   12.10259  -11.81141
       H    -2.13047   13.47392  -13.67072
       O    -1.92326   14.42003  -13.83578
      H1    -2.22552   14.99367  -13.09430
       H    -3.04967    9.78299  -16.21134
       O    -3.33126   10.66980  -16.23851
      H1    -3.22922   11.06310  -15.35877
       H     4.36748   10.55587  -15.17393
       O     3.93198    9.70770  -15.34930
      H1     3.13603    9.52841  -14.80767
       H     1.28025   10.83971   -7.97789
       O     1.61842   11.07052   -8.88975
      H1     1.17615   11.90414   -9.09844
       H    -3.07671   13.47444   -9.55584
       O    -2.42050   14.05330   -9.14816
      H1    -2.46540   13.84846   -8.17439
       H    -4.58945   15.06356  -11.79479
       O    -3.66074   15.28659  -11.68048
      H1    -3.47834   15.11383  -10.76091

