123
frame 10 | Written by MDAnalysis XYZWriter (release 2.4.3)
       H   -10.94912    7.35355   12.74555
       O   -11.29913    6.84175   13.49003
      H1   -12.11332    7.15323   13.79259
       H   -11.36393    0.94797   12.22262
       O   -11.69646    0.12040   12.61207
      H1   -11.73998    0.31790   13.57810
       H   -11.32500    1.34035   18.49641
       O   -10.52510    1.49696   17.88783
      H1    -9.74689    1.40470   18.42633
       H   -12.82180   -2.99560   16.06228
       O   -11.94090   -2.95863   15.69610
      H1   -11.89486   -3.40467   14.86437
       H   -10.66431    3.98321   14.83881
       O   -10.25383    4.41025   14.04730
      H1   -10.51661    5.34769   13.87597
       H   -18.85308    6.20976   16.93063
       O   -18.40645    5.39772   17.29514
      H1   -18.85129    4.68797   16.83591
       H   -15.70857    2.80532   12.85986
       O   -16.03471    3.16460   13.70079
      H1   -15.64352    4.03125   13.79024
       H    -8.02022    6.02814   18.64388
       O    -8.42941    5.76009   19.48712
      H1    -8.99172    6.52261   19.73791
       H   -17.16249    5.99674   16.27362
       O   -16.18970    6.20497   16.20312
      H1   -16.09587    6.41165   15.23807
       H   -10.59674    9.56052   17.51564
       O   -11.48202    9.34646   17.91712
      H1   -11.63987    8.38006   17.78514
       H   -16.35272    7.56855   17.15654
       O   -16.32367    8.35577   17.71989
      H1   -16.82606    8.88390   17.12952
       H   -13.55750    8.41598   15.03749
       O   -13.52318    7.44764   14.90067
      H1   -13.05595    7.06836   15.65321
       H    -7.81766    0.23554   15.24189
       O    -7.50195    0.89252   16.01699
      H1    -8.11522    1.64982   15.95250
       H    -7.04589    9.95472   17.87870
       O    -7.56941    9.17837   17.92918
      H1    -7.95518    9.39342   18.83882
       H    -8.29829    5.11262   12.04320
       O    -8.37864    4.13743   11.83416
      H1    -9.25464    3.83643   12.04708
       H   -17.64703    8.29815   18.64278
       O   -18.43200    8.28283   19.25589
      H1   -18.92577    9.08633   19.04457
       H    -4.92055    5.87689   19.03972
       O    -4.86601    5.04558   19.56132
      H1    -4.65098    4.45209   18.82143
       H   -13.12201    1.61784   19.27431
       O   -13.01389    0.68598   19.01896
      H1   -13.70677    0.10788   19.47520
       H   -13.17937    5.15813   16.66315
       O   -12.78885    5.93261   17.07550
      H1   -11.92275    5.51392   17.30099
       H   -12.42113   10.89760   18.11955
       O   -12.76013   11.76410   18.36018
      H1   -12.08595   12.11004   18.93434
       H   -15.36291    6.31658   12.76540
       O   -15.10093    5.84585   13.54774
      H1   -14.39050    6.35093   14.02835
       H   -10.05626    8.49046   15.85494
       O   -10.09095    7.52392   16.13880
      H1   -10.63201    7.22980   15.38493
       H    -6.70096    7.48457   15.23731
       O    -6.15866    7.86780   14.55203
      H1    -5.32391    8.12296   15.05141
       H   -16.49657    0.48810   18.16940
       O   -16.88988   -0.06550   18.87230
      H1   -17.53343   -0.68931   18.47832
       H    -8.71474   -1.36951   18.31917
       O    -8.95942   -1.28973   17.39270
      H1    -8.34403   -0.54619   17.19232
       H    -9.57858   11.10521   15.99173
       O    -9.45687   10.21688   16.28514
      H1    -8.76441   10.14589   16.97542
       H   -11.64757    2.61065   11.19858
       O   -10.83436    2.62745   11.76773
      H1   -11.15083    3.14564   12.52800
       H   -13.50403    4.20085   19.46175
       O   -12.67317    3.68604   19.69667
      H1   -11.93132    4.06151   19.17627
       H   -11.80263   -1.07801   19.13877
       O   -11.40359   -1.95120   18.91212
      H1   -11.40482   -2.07545   17.95258
       H    -8.36626    4.10926   14.95889
       O    -7.84088    3.82616   15.73251
      H1    -7.66102    4.74063   16.11384
       H   -14.23287   -3.39976   17.71359
       O   -14.36151   -3.34209   16.76371
      H1   -14.81203   -2.48392   16.63954
       H    -9.59532   -3.10774   17.07819
       O    -9.87016   -4.06314   17.15421
      H1   -10.55366   -4.11482   16.49809
       H   -15.09252    4.36668   16.34126
       O   -14.51978    3.69730   15.97078
      H1   -14.95498    3.30647   15.24940
       H   -16.58251   -0.52777   15.31989
       O   -17.50642   -0.36509   15.16223
      H1   -17.99850   -0.57815   15.97551
       H   -10.12629    3.47662   18.21346
       O   -10.35546    4.43595   18.14670
      H1    -9.73071    4.82163   18.74255
       H   -14.81001    2.31623   16.99368
       O   -15.01700    1.53819   17.51525
      H1   -14.15970    1.18748   17.88473
       H    -5.66367   -0.02260   18.84501
       O    -5.84621   -0.51729   18.02378
      H1    -6.20735    0.13024   17.42761
       H    -4.50954    1.82378   14.61925
       O    -5.21701    2.37340   14.19063
      H1    -5.64703    2.75276   14.93699
       H   -14.92893    0.13902   16.42130
       O   -14.91535   -0.69582   15.87578
      H1   -14.60403   -0.39689   15.03519
       H    -7.42146    7.40748   17.42075
       O    -7.67566    6.70226   16.78407
      H1    -8.57186    6.93000   16.60144
       H   -11.43097    0.40896   16.21513
       O   -12.08857    0.19006   15.53506
      H1   -12.20025   -0.78601   15.70784

