123
frame 11 | Written by MDAnalysis XYZWriter (release 2.4.3)
       H     2.76833   15.58240  -10.71678
       O     1.98386   15.08406  -10.54355
      H1     1.24770   15.71183  -10.55436
       H    -2.34091   16.17673  -12.79853
       O    -2.83101   16.90729  -13.13269
      H1    -2.43097   17.13587  -14.00142
       H     2.73045   16.78783   -3.33783
       O     3.32565   16.25683   -3.90919
      H1     2.88173   15.42318   -4.04365
       H     2.57494   18.19137   -2.02936
       O     1.86867   17.58594   -2.03875
      H1     1.07346   18.12037   -2.12686
       H     4.93996   16.34722  -11.21630
       O     4.26904   16.13879  -11.84665
      H1     4.19840   17.05647  -12.21301
       H     0.13901   15.28663  -14.36463
       O     0.56510   15.04269  -15.18583
      H1     0.18373   14.17519  -15.33614
       H    -2.04851   18.33169   -5.26278
       O    -1.21944   18.01184   -4.91036
      H1    -0.69434   17.89118   -5.72499
       H     0.00265   12.45817  -12.25526
       O    -0.74490   12.01328  -12.70710
      H1    -1.28948   11.56764  -12.07373
       H     2.15288   14.00344  -12.01942
       O     2.01600   13.10589  -12.36433
      H1     1.76854   13.34488  -13.28777
       H     4.95414   14.78429  -12.98364
       O     5.39261   14.17312  -13.62564
      H1     4.79464   14.30351  -14.43643
       H     4.48174   18.37181  -13.01622
       O     4.89749   18.64106  -12.18380
      H1     5.83103   18.63988  -12.25576
       H    -1.65581   18.37499  -10.25340
       O    -1.72918   17.92321   -9.40174
      H1    -2.65505   17.70131   -9.26644
       H    -2.21069   15.37680   -3.45268
       O    -1.58580   16.04274   -3.07148
      H1    -1.46569   16.67252   -3.81987
       H     2.69750   10.33670   -8.64453
       O     3.56581   10.66617   -8.32763
      H1     3.84095   11.32602   -8.92072
       H     8.41440   17.39434  -10.83494
       O     7.96176   18.09554  -11.33103
      H1     8.66468   18.75273  -11.41057
       H     5.65284   16.21099   -8.88564
       O     6.02799   16.27434   -9.78733
      H1     6.70909   15.59939  -10.06404
       H     4.89975   13.27841  -11.19149
       O     4.46509   12.43671  -10.93624
      H1     3.73439   12.41566  -11.53277
       H     0.59770   15.07848   -5.38988
       O     0.22289   15.28037   -6.25977
      H1     0.85652   14.74445   -6.79494
       H     2.07142   17.82385  -10.51327
       O     1.61549   17.91705  -11.33868
      H1     0.86049   18.51801  -11.21255
       H     2.21352   10.81845   -5.51362
       O     1.37499   11.19940   -5.84111
      H1     0.70929   10.63855   -5.35762
       H     1.70918   17.88038  -14.55584
       O     0.78970   18.14252  -14.25188
      H1     0.87838   18.23772  -13.23526
       H     4.21289   16.71430   -7.38035
       O     5.07022   16.45664   -7.18412
      H1     5.52951   17.28581   -6.93994
       H    -4.06720   15.69177   -5.53801
       O    -4.75313   16.30868   -5.24931
      H1    -4.52101   16.34040   -4.27523
       H     5.84763   19.66244   -9.34272
       O     6.86192   19.69882   -9.41278
      H1     7.11338   18.97472  -10.03611
       H    -2.47180   10.82807   -6.48866
       O    -1.64332   11.21735   -6.19642
      H1    -1.40268   11.87213   -6.90799
       H     5.87372   14.94284   -6.44505
       O     6.42592   14.17363   -6.09235
      H1     5.72655   13.46889   -5.98567
       H     4.11660   18.07796   -3.86514
       O     4.11426   18.99092   -3.49905
      H1     5.06931   19.02625   -3.39141
       H     0.07025   13.23151   -8.82916
       O     1.02083   13.34877   -8.62866
      H1     1.38101   13.85430   -9.34746
       H     1.82938   17.71988   -8.05427
       O     2.61661   17.47437   -8.51510
      H1     2.99960   18.31423   -8.71695
       H     4.54861   15.55632   -0.82365
       O     4.98906   16.07627   -1.48204
      H1     4.51797   16.00115   -2.30069
       H     6.44915   19.33966   -7.55885
       O     6.47449   18.78222   -6.74772
      H1     6.13005   19.32678   -6.02843
       H     1.17421   13.52486   -3.48447
       O     1.73246   13.54754   -4.23553
      H1     1.41268   12.79131   -4.76451
       H    -4.02684   19.45628   -4.82883
       O    -3.73371   18.81793   -5.48794
      H1    -4.28964   18.00933   -5.43074
       H     9.49670   18.45780   -6.23537
       O     9.12221   18.25823   -7.10077
      H1     8.28502   18.69956   -7.11821
       H    -2.69660   14.02508   -5.45621
       O    -2.68276   14.62540   -6.22473
      H1    -1.73419   14.86599   -6.30152
       H    -0.98581   14.36253  -12.91358
       O    -0.61535   15.23564  -12.74757
      H1    -0.64462   15.27269  -11.79297
       H     1.13017   10.82613   -7.65906
       O     0.93961   10.75177   -8.60555
      H1     1.10315   11.69131   -8.83582
       H    -2.60962   13.07450   -9.58414
       O    -1.95519   13.24315   -8.85762
      H1    -2.48178   13.58379   -8.13105
       H    -1.22820   14.76511   -9.41717
       O    -0.84741   15.45980   -9.95740
      H1    -1.25208   16.32869   -9.77586
       H    -4.68484   18.54364   -9.12016
       O    -4.42766   17.64425   -8.77116
      H1    -4.80309   17.56654   -7.91045
       H     0.42789   16.74469   -7.00404
       O     0.22765   17.63169   -7.33434
      H1    -0.59448   17.57647   -7.89581

