123
frame 3 | Written by MDAnalysis XYZWriter (release 2.4.3)
       H    -2.13211   -8.96209    0.48709
       O    -1.65261   -9.76492    0.80985
      H1    -1.03907   -9.43636    1.43956
       H     1.41568   -7.66125    2.26594
       O     1.42744   -7.70425    1.33491
      H1     2.10311   -7.13410    0.96990
       H     1.71197  -12.19315   -6.18593
       O     1.07836  -12.62506   -6.77631
      H1     0.36182  -13.04549   -6.21651
       H    -0.05420   -7.88322   -2.48513
       O     0.68547   -7.91270   -3.10970
      H1     0.62051   -8.80304   -3.47909
       H    -0.65727  -16.33865    1.17911
       O     0.30341  -16.49043    0.95150
      H1     0.74753  -15.89577    1.54568
       H     3.48965  -11.54897   -4.73222
       O     2.54471  -11.60968   -4.65121
      H1     2.44703  -12.54182   -4.43682
       H     2.89547  -14.72757    1.45981
       O     2.63391  -15.20677    2.29597
      H1     3.38473  -15.88484    2.21536
       H     6.39235  -13.92417   -4.03627
       O     5.51533  -13.53381   -4.30337
      H1     4.88672  -14.24660   -4.20959
       H     2.53123  -10.80445    2.00334
       O     2.41852  -11.20135    1.12963
      H1     2.37604  -10.50863    0.40026
       H    -1.08049  -14.62360   -5.60642
       O    -0.71233  -13.83942   -5.10349
      H1    -1.49447  -13.30033   -4.93509
       H     0.70212  -14.18187   -4.02863
       O     1.38747  -13.98889   -3.37878
      H1     0.92963  -13.91966   -2.54696
       H     3.42417  -15.04305   -0.78668
       O     2.91363  -14.30175   -0.39804
      H1     3.45368  -13.52638   -0.67781
       H    -2.97212  -11.42652   -3.97952
       O    -3.07378  -12.05559   -4.76670
      H1    -2.69396  -11.71906   -5.59395
       H    -0.02726  -14.02240    4.01288
       O     0.30826  -14.01467    4.91271
      H1     1.27168  -13.97127    4.71035
       H     6.92370  -15.28927    1.05902
       O     6.08111  -14.97418    1.22585
      H1     5.66490  -14.76097    0.38914
       H    -4.94839  -11.50264    1.29116
       O    -4.91443  -10.98462    2.11797
      H1    -5.08568  -11.69135    2.77499
       H    -0.89993   -6.55367   -0.17265
       O    -0.59498   -7.36742   -0.52374
      H1     0.15553   -7.52914    0.03755
       H    -5.07004  -14.92616   -1.22135
       O    -4.51735  -14.25767   -1.66401
      H1    -3.65144  -14.57262   -1.92624
       H     2.70577   -8.87789   -6.65149
       O     1.90253   -8.75863   -6.14297
      H1     1.95977   -9.40158   -5.46508
       H     2.43239   -8.95649   -1.65946
       O     2.51526   -9.57155   -0.91341
      H1     3.45976   -9.54737   -0.66270
       H    -1.01212  -15.12257   -1.13560
       O    -1.92036  -15.46321   -1.18690
      H1    -1.80138  -16.11698   -1.90016
       H    -1.80841  -10.74225    3.11566
       O    -2.47769  -11.39147    3.35692
      H1    -3.21900  -11.24940    2.77123
       H    -2.33312  -15.96392    0.60822
       O    -2.31613  -16.07579    1.55659
      H1    -2.63643  -15.25257    1.89446
       H    -4.71060  -13.14408   -4.46613
       O    -5.39406  -13.74179   -4.18157
      H1    -5.01678  -13.96657   -3.33940
       H     4.01972  -17.16471   -1.10682
       O     4.37095  -16.47691   -1.62449
      H1     5.08269  -16.77182   -2.11995
       H    -4.48723  -10.93306   -1.14188
       O    -5.14780  -11.58311   -0.83987
      H1    -4.75688  -12.41682   -1.11977
       H    -0.43007  -10.17928    4.99745
       O    -0.19296   -9.70710    4.16824
      H1    -0.65612   -8.86531    4.37649
       H     0.14310  -12.94491   -1.00724
       O     0.33205  -13.88195   -0.94154
      H1     1.28664  -13.98068   -0.63407
       H    -1.86933  -17.62410   -3.70809
       O    -1.52912  -17.58086   -2.79029
      H1    -1.86958  -18.41241   -2.35905
       H     1.56666   -9.71481    3.94878
       O     2.49675   -9.51500    3.62664
      H1     3.10631  -10.00161    4.17323
       H     3.62632  -15.99307   -3.26715
       O     3.34780  -15.55373   -4.03303
      H1     2.53413  -15.12599   -3.80712
       H     1.38857  -12.74062    1.60106
       O     0.56803  -13.20399    1.92797
      H1     0.17202  -13.61191    1.20762
       H     3.64145  -13.32422    4.93914
       O     3.01665  -14.07018    4.89321
      H1     2.79650  -14.16996    3.95215
       H     2.08999  -17.18030    0.22874
       O     2.87398  -17.72152    0.19039
      H1     3.48796  -17.50929    0.99393
       H    -2.30736  -13.09424    3.27884
       O    -2.27951  -14.05199    3.55473
      H1    -2.45654  -13.99255    4.52007
       H     2.87219  -15.48405   -7.28765
       O     2.58684  -16.07105   -6.59426
      H1     3.04386  -15.82935   -5.72958
       H     3.35785  -12.45881   -2.08671
       O     4.27918  -12.48271   -1.80861
      H1     4.78180  -12.75380   -2.57850
       H    -0.97983  -10.84628   -3.28973
       O    -0.54590  -10.34768   -4.02243
      H1    -1.13599   -9.70183   -4.37767
       H    -2.97385   -9.78412   -1.94743
       O    -2.70169  -10.69137   -2.28243
      H1    -1.91942  -10.87701   -1.72252
       H    -0.62688  -11.00488   -0.31084
       O    -0.38357  -11.19040   -1.24733
      H1     0.49409  -10.87099   -1.44802
       H     5.26293  -10.43112    0.45449
       O     4.93255  -10.21147   -0.43455
      H1     4.70337  -11.08539   -0.80388

