123
frame 7 | Written by MDAnalysis XYZWriter (release 2.4.3)
       H     2.89090   16.15994  -10.12361
       O     2.41323   16.00331  -10.91038
      H1     3.01274   15.40389  -11.40530
       H     3.19578   16.87654  -14.60697
       O     3.23401   17.67303  -15.07502
      H1     3.44828   17.49437  -15.95049
       H     8.85196   13.48399  -12.01382
       O     8.39274   13.90910  -12.72539
      H1     7.52918   13.41652  -12.73292
       H     8.33786   17.21842  -17.45267
       O     7.95297   17.88976  -17.97793
      H1     8.70905   18.33016  -18.39344
       H     6.56605   16.32485  -12.86649
       O     6.56106   16.53987  -13.77156
      H1     6.64794   17.50724  -13.78402
       H     2.28310   15.08851  -14.21469
       O     3.22876   15.33402  -14.03573
      H1     3.77700   14.73344  -14.57692
       H     5.90184   15.70427  -15.36397
       O     6.03958   14.84449  -15.81467
      H1     5.27718   14.69486  -16.36595
       H    16.85603   16.23754  -14.70966
       O    16.36667   16.99921  -14.34025
      H1    15.43545   16.68897  -14.61379
       H     8.79611   19.40763  -14.76933
       O     8.79858   19.30903  -13.83733
      H1     9.74585   19.28671  -13.57265
       H    12.72363   17.97418  -10.22748
       O    12.08379   17.27419   -9.96219
      H1    12.24807   16.52403  -10.55555
       H    10.10522   12.34045  -10.24906
       O    10.26996   12.96122  -10.95193
      H1    10.47469   12.36551  -11.72575
       H     8.96409   17.29978  -13.78038
       O     9.53631   16.54044  -13.69455
      H1     9.01480   15.85287  -13.17607
       H    10.75457   18.18815   -6.71593
       O    11.12487   18.61848   -7.54899
      H1    11.19079   17.92763   -8.24740
       H     9.82491   15.51354   -9.13087
       O     9.27870   16.02768   -9.76191
      H1     9.77313   16.28498  -10.57160
       H     7.49975   16.24239  -10.66153
       O     6.82474   15.79166  -11.16650
      H1     7.23992   15.10625  -11.67212
       H     5.37762   13.60235  -13.66921
       O     5.84724   13.01926  -13.04523
      H1     5.42547   13.27067  -12.16830
       H     3.06916   19.24527  -11.21077
       O     2.10542   19.02057  -11.25245
      H1     1.98693   18.21916  -10.78785
       H     3.95708   14.21517  -18.82955
       O     4.07348   15.00331  -19.38157
      H1     3.54154   15.71987  -18.88920
       H     9.44310   15.98365  -15.79557
       O     8.90159   15.80343  -16.51909
      H1     8.23137   15.10437  -16.29483
       H     1.81002   18.37716  -14.23750
       O     1.00731   18.57677  -13.83778
      H1     1.32255   18.76873  -12.92040
       H    15.50951   19.18809  -16.22437
       O    14.56640   19.01504  -16.51351
      H1    14.49290   19.02360  -17.45660
       H    11.13683   14.87435  -18.26514
       O    10.28942   14.84129  -18.69289
      H1     9.69745   15.29092  -18.07578
       H     6.65635   14.42791  -17.52807
       O     6.91236   14.17435  -18.42436
      H1     7.57290   13.45870  -18.25724
       H     7.72614   18.05456   -8.19185
       O     7.93081   17.19240   -7.85182
      H1     8.53912   16.87012   -8.52323
       H     9.52772   13.37795  -17.61107
       O     8.93374   12.59427  -17.52216
      H1     9.02970   12.31457  -16.63493
       H    11.41486   13.84189   -8.49099
       O    11.18528   14.75122   -8.33240
      H1    12.11479   15.09638   -8.38655
       H     5.29402   14.80608  -10.69613
       O     4.63559   14.12614  -10.82325
      H1     3.97802   14.28887  -10.16916
       H    13.12761   13.81670  -17.10413
       O    12.63527   14.62049  -17.22402
      H1    13.15796   15.13921  -17.86412
       H    12.87744   16.61691  -13.86701
       O    12.21250   16.76304  -13.21360
      H1    11.33068   16.84354  -13.66415
       H    16.96640   18.25327  -15.33514
       O    17.18293   18.96516  -15.95903
      H1    17.63078   19.64884  -15.43223
       H    12.13060   20.28171  -18.81702
       O    12.10607   19.38772  -18.47162
      H1    12.06913   18.80359  -19.31892
       H    14.12710   17.24222   -8.96667
       O    14.96316   17.28372   -9.41244
      H1    15.60468   17.79537   -8.95078
       H    11.65046   19.81352  -14.56423
       O    11.65661   19.62955  -13.58657
      H1    12.06700   18.74275  -13.51488
       H     2.52264   17.59553  -17.93863
       O     3.33820   17.10074  -17.99778
      H1     3.80589   17.80088  -18.47359
       H     0.35544   18.56290  -17.34927
       O     1.22836   18.95109  -17.56506
      H1     1.17005   19.78492  -17.06856
       H     6.61007   17.51358  -19.03913
       O     5.88823   17.38047  -19.71548
      H1     5.50895   16.45629  -19.59314
       H     4.77638   18.83421  -19.64153
       O     4.07125   19.52986  -19.54098
      H1     4.28751   19.90076  -18.62097
       H     6.81505   15.61531   -7.59010
       O     6.26300   14.87457   -7.91998
      H1     6.66650   14.57604   -8.78064
       H    11.54838   14.25626  -11.03769
       O    12.32666   14.76578  -11.29635
      H1    12.04650   15.12403  -12.18397
       H    13.71900   17.20284  -16.12184
       O    13.60176   16.57592  -15.39885
      H1    13.29412   15.85644  -15.94186
       H     9.17315   10.96197  -14.57840
       O     8.72331   11.08075  -15.44840
      H1     8.78112   10.19948  -15.91762

