123
frame 3 | Written by MDAnalysis XYZWriter (release 2.4.3)
       H   -17.18044   10.86089  -10.38896
       O   -17.52938    9.94074  -10.46218
      H1   -18.25610    9.74278   -9.84701
       H   -11.66075   10.32662  -13.72158
       O   -12.19476    9.62916  -13.44121
      H1   -12.40013    9.71132  -12.48643
       H   -17.11788   10.59780   -5.77139
       O   -17.27985   10.39019   -4.85066
      H1   -17.60776    9.46704   -4.76168
       H   -18.00407    1.11559  -15.03063
       O   -18.15942    1.70278  -14.26467
      H1   -17.68411    2.47011  -14.68872
       H   -15.69664    0.01189  -13.05908
       O   -14.82788    0.44963  -12.95364
      H1   -14.12858    0.03234  -13.47219
       H   -18.00897    3.92922  -10.27553
       O   -18.35718    3.21345  -10.77725
      H1   -18.79359    2.55286  -10.22552
       H   -13.69508    1.61344  -15.39233
       O   -14.28963    2.18651  -15.91429
      H1   -15.09801    2.47850  -15.46774
       H   -16.60939    6.49621  -16.32952
       O   -16.88552    5.69486  -16.79066
      H1   -16.83630    5.89481  -17.70643
       H   -15.67432    1.69160  -11.91391
       O   -15.84419    2.50862  -11.36307
      H1   -16.80887    2.63396  -11.21145
       H   -13.48631    9.35879   -9.99957
       O   -12.80809    8.90135  -10.54249
      H1   -12.00063    9.40791  -10.36738
       H   -12.59674   10.36195   -6.62457
       O   -12.68326    9.67011   -7.29560
      H1   -13.47424    9.93083   -7.80504
       H   -11.12740    7.05582  -12.03375
       O   -10.67300    6.23924  -11.81986
      H1    -9.72240    6.49815  -11.74176
       H   -13.78514    2.90549   -9.29317
       O   -13.04861    3.51016   -9.28962
      H1   -13.44051    4.25697   -9.79128
       H   -17.23852    4.36650   -4.18005
       O   -16.61797    4.05601   -3.51954
      H1   -15.78779    4.42895   -3.81791
       H   -17.07993    6.39643  -12.95311
       O   -16.38411    6.44354  -12.28789
      H1   -16.08370    7.38266  -12.32498
       H   -17.20892    7.27211   -3.95846
       O   -17.94759    7.78970   -3.63170
      H1   -17.70527    8.40086   -2.93810
       H   -14.29105    6.33815   -8.68434
       O   -15.18033    6.33928   -8.26179
      H1   -15.80567    5.93339   -8.88123
       H   -12.97204    5.53582   -6.75971
       O   -12.90530    4.55717   -6.74809
      H1   -12.88460    4.19084   -7.61402
       H   -11.98176    3.10384  -11.34527
       O   -11.11063    3.39969  -11.58591
      H1   -11.19774    4.37882  -11.65908
       H   -16.10691    3.24902   -6.55684
       O   -15.23344    2.86076   -6.73020
      H1   -14.63983    3.64498   -6.67049
       H   -17.32273   12.87837  -11.43500
       O   -16.68923   12.36410  -10.92800
      H1   -16.55616   13.02942  -10.10324
       H   -12.39790    7.16653   -9.68374
       O   -12.75402    6.39699   -9.25148
      H1   -12.02330    5.94330   -8.85282
       H   -17.34511    6.45374   -6.27616
       O   -16.45368    6.36933   -5.85674
      H1   -15.94326    6.12631   -6.63594
       H   -17.10331    8.25579  -15.02705
       O   -16.34960    8.16561  -15.59101
      H1   -15.53571    8.34289  -15.01016
       H   -17.46699    0.33580   -7.00414
       O   -17.42404   -0.24367   -7.74660
      H1   -17.86488    0.19510   -8.44918
       H   -18.69789    4.02651  -12.37998
       O   -18.69124    4.49155  -13.18111
      H1   -19.43073    4.00703  -13.61823
       H   -15.38703    1.85681   -9.79596
       O   -14.90303    1.44389   -9.07117
      H1   -15.11878    1.96122   -8.29689
       H   -17.13968    5.88906  -10.73302
       O   -17.39153    5.54552   -9.84615
      H1   -18.14241    6.07583   -9.59688
       H   -15.20088   10.95527  -14.02639
       O   -16.14347   11.03961  -13.74291
      H1   -16.61967   10.59709  -14.49067
       H   -14.73705    5.54054  -11.61746
       O   -14.06420    4.82953  -11.53552
      H1   -14.59002    4.05918  -11.73876
       H   -16.34722   10.60101   -7.99752
       O   -16.60263   11.23417   -7.30835
      H1   -15.80251   11.55647   -6.96119
       H   -20.02720    4.78118  -15.96642
       O   -19.49649    5.22677  -16.64187
      H1   -18.53362    5.22388  -16.44315
       H   -17.46319    4.74826   -6.45113
       O   -17.66909    3.83376   -6.20559
      H1   -18.48330    3.57791   -6.58812
       H   -18.74571   10.68796  -11.67066
       O   -19.26393   11.01433  -12.39001
      H1   -20.11491   11.22110  -11.99365
       H   -12.77579    6.48389  -13.88308
       O   -12.87044    7.18463  -14.52329
      H1   -12.61306    7.93408  -13.97793
       H   -16.36303    4.52131  -15.43022
       O   -16.43454    3.78053  -14.84835
      H1   -16.15538    4.12162  -14.00657
       H   -14.18452    8.85778  -11.90345
       O   -15.10457    8.73310  -12.18114
      H1   -15.46210    9.60125  -12.33644
       H   -18.87817    7.50597   -7.44569
       O   -19.05033    6.56461   -7.13839
      H1   -19.58101    6.21628   -7.87173
       H   -19.46533    8.38511  -14.65064
       O   -18.79632    8.67461  -13.93757
      H1   -19.10872    9.53104  -13.57741
       H   -13.09602    7.92943   -6.87257
       O   -13.14475    7.27385   -6.11284
      H1   -14.04796    7.26286   -5.74763
       H   -15.06311    8.16002   -8.57812
       O   -15.19723    9.05386   -8.93127
      H1   -15.65866    8.99976   -9.81730

