123
frame 2 | Written by MDAnalysis XYZWriter (release 2.4.3)
       H   -15.22506   12.14813    1.67056
       O   -15.98535   12.50688    2.22353
      H1   -16.11318   13.39791    1.91837
       H   -10.35119   10.39746    1.07138
       O   -11.10311   10.42884    1.66307
      H1   -11.73392   11.05016    1.32001
       H   -17.40358   11.78895   -0.96196
       O   -16.60126   11.51649   -1.34005
      H1   -16.58953   12.03389   -2.11638
       H   -12.36454    7.77442   -4.73457
       O   -11.57065    8.29065   -4.72655
      H1   -11.20824    8.28277   -3.86068
       H   -13.23284    5.89807   -2.47793
       O   -13.22330    6.32137   -3.34980
      H1   -13.45203    7.26583   -3.16151
       H   -11.86298    9.15030   -2.02551
       O   -10.98510    8.65716   -2.03451
      H1   -11.12173    8.02584   -1.32540
       H   -14.68570    8.89789   -2.02106
       O   -14.22033    8.67753   -2.87387
      H1   -14.39233    9.33632   -3.47132
       H   -13.44582   16.90263   -0.41374
       O   -14.18623   16.28803   -0.25140
      H1   -14.75782   16.42908   -1.02780
       H    -8.34134   10.55530   -0.77322
       O    -9.27920   10.36852   -0.56986
      H1    -9.71183    9.84755   -1.30133
       H   -14.21239   12.12441   -5.99325
       O   -14.21798   12.79496   -6.69769
      H1   -13.33991   12.77957   -7.11154
       H   -17.80217   13.17246    3.15929
       O   -18.72581   13.36474    3.37732
      H1   -19.05769   14.03482    2.81398
       H   -15.53372   15.25015    0.59475
       O   -16.35834   15.09616    1.07204
      H1   -17.01235   15.16831    0.40596
       H   -13.65408   12.21073    0.20814
       O   -13.81201   11.54889    0.83812
      H1   -14.38385   10.96423    0.33702
       H   -14.97098   13.58457   -3.16800
       O   -14.30837   13.00688   -2.87351
      H1   -13.90241   13.32252   -2.05448
       H   -15.98590    5.14545   -4.57752
       O   -15.99869    5.85628   -3.93529
      H1   -15.06391    6.08702   -3.62147
       H   -17.07803    7.25206   -3.89272
       O   -17.91243    7.79765   -3.77795
      H1   -17.82044    8.16080   -2.87956
       H   -15.34736   11.41072   -3.97578
       O   -15.14702   10.77025   -4.72446
      H1   -16.02524   10.39353   -5.04770
       H   -12.40983    7.54626    4.09174
       O   -12.07530    6.63744    4.18580
      H1   -12.63734    6.25120    4.96000
       H   -10.01045   11.96646   -0.60644
       O   -10.33422   12.85025   -0.40760
      H1   -10.15527   13.23010   -1.29552
       H   -18.31833    7.61387    2.10409
       O   -17.85099    7.77180    2.93558
      H1   -16.95855    7.39212    2.84793
       H   -11.43956   12.57510   -4.66719
       O   -11.71146   13.23805   -4.04044
      H1   -12.65935   13.19384   -3.90430
       H   -14.73648    8.58840    0.21452
       O   -15.10494    9.08771   -0.49327
      H1   -16.08544    9.04632   -0.54558
       H   -13.00230    9.15230    1.57258
       O   -13.50243    8.32286    1.39816
      H1   -12.77166    7.79256    1.03022
       H   -17.47135   17.75928    2.30513
       O   -16.71689   17.29844    2.72417
      H1   -16.64479   16.44883    2.20963
       H   -17.58198   11.04956    2.39320
       O   -18.39749   10.56820    2.53386
      H1   -18.07763    9.65569    2.68920
       H    -9.59271   13.06418    3.19327
       O    -9.06651   13.74630    2.68255
      H1    -9.66214   14.20052    2.08106
       H   -16.18266   15.16433   -4.00596
       O   -16.34958   14.93415   -3.13232
      H1   -17.01749   14.15833   -3.19422
       H   -18.34429   12.38324   -3.99048
       O   -18.06920   12.95569   -3.24522
      H1   -18.75528   12.83996   -2.57252
       H   -10.33607   11.16263    3.29461
       O   -10.42869   11.90720    3.98258
      H1   -10.21950   11.49861    4.81582
       H   -12.67717    4.16256   -1.10652
       O   -12.82177    5.05418   -0.72487
      H1   -13.65450    5.07788   -0.19728
       H   -12.11994   13.54235   -0.41363
       O   -13.01518   13.81979   -0.67052
      H1   -13.17267   14.73359   -0.40278
       H   -14.60994    7.10251    2.61784
       O   -15.30011    6.54881    3.02306
      H1   -15.37793    5.77753    2.45795
       H   -13.18919    9.81256    4.41889
       O   -12.36422    9.29290    4.46052
      H1   -11.80341    9.63001    3.76414
       H   -12.56603   12.25014    6.08932
       O   -13.33230   11.90113    6.51416
      H1   -12.90386   11.38692    7.17976
       H   -11.11112   11.08570   -6.11472
       O   -11.86263   10.87977   -5.54598
      H1   -11.67198   10.00816   -5.07410
       H   -11.82716    6.32082    0.07046
       O   -11.14009    7.08857    0.10730
      H1   -10.84439    7.18399    0.98534
       H   -18.76293   15.99492   -0.90466
       O   -19.15064   15.14967   -0.64288
      H1   -19.62091   15.39337    0.13611
       H   -18.21866    8.22053   -0.35830
       O   -17.79051    8.88750   -0.89788
      H1   -18.00474    9.69243   -0.52449
       H   -15.17527    3.84240    0.84330
       O   -15.21463    4.81504    0.90835
      H1   -15.77214    5.07789    0.16584
       H   -10.38358   14.39597   -3.27240
       O    -9.46842   14.30098   -3.03989
      H1    -9.35137   13.42444   -3.35042
       H    -9.70539   15.30176    0.19811
       O    -9.95303   15.69508    1.01491
      H1    -9.30348   16.40704    1.09248

