123
frame 2 | Written by MDAnalysis XYZWriter (release 2.4.3)
       H    -4.70537   -3.46814  -11.29291
       O    -4.41066   -4.12349  -10.65413
      H1    -3.64690   -3.76883  -10.15686
       H    -5.45709   -7.93392   -2.24116
       O    -5.23954   -8.09849   -1.30130
      H1    -4.83227   -7.32617   -0.92967
       H     3.49491   -5.53653   -5.47022
       O     3.59769   -4.55922   -5.71062
      H1     3.66342   -4.54241   -6.68649
       H    -4.02955   -2.35665   -6.30906
       O    -3.38929   -1.97588   -6.96195
      H1    -3.94238   -1.68919   -7.69189
       H     4.67579   -1.46757   -3.18438
       O     4.49920   -2.35163   -3.51012
      H1     5.31211   -2.80353   -3.26558
       H     0.22033   -7.24311   -1.06907
       O     0.65446   -7.05173   -1.89896
      H1     0.41915   -7.89741   -2.39981
       H    -0.73749   -2.05568   -2.93406
       O    -1.45538   -1.65801   -3.43694
      H1    -1.09561   -1.65975   -4.37575
       H     0.10415   -5.63643   -3.35254
       O    -0.06698   -4.64429   -3.44856
      H1     0.83977   -4.34946   -3.52897
       H    -2.93320   -5.68825   -5.36103
       O    -3.82125   -6.11423   -5.29025
      H1    -4.06760   -6.27575   -6.24570
       H    -4.66265   -1.75136   -2.54721
       O    -4.01193   -2.20585   -1.97809
      H1    -3.22402   -2.18691   -2.52520
       H    -0.89333   -5.66192   -6.23055
       O    -1.25682   -4.84106   -5.80816
      H1    -0.78595   -4.88335   -4.93202
       H     0.73106   -3.35170   -9.54562
       O     0.46529   -4.06561   -8.95552
      H1     0.40779   -4.81414   -9.52805
       H     0.46073   -7.30224  -11.11112
       O    -0.26014   -6.75830  -10.63341
      H1    -0.64879   -6.31623  -11.40532
       H    -1.42677   -4.73403    1.45254
       O    -1.30183   -5.20238    0.55232
      H1    -1.07161   -4.45075   -0.08755
       H    -1.04337   -3.00753   -6.19481
       O    -0.88306   -2.10219   -6.01716
      H1    -1.56746   -1.74777   -6.56560
       H    -7.79976   -3.16030   -3.82897
       O    -7.22896   -2.61852   -4.41476
      H1    -6.75861   -3.26373   -4.92403
       H     2.09809   -1.35822   -0.75143
       O     2.26203   -2.23067   -1.12046
      H1     2.70294   -2.16967   -1.90826
       H     0.57381   -2.76485   -1.24263
       O    -0.30995   -3.19094   -1.29078
      H1    -0.37415   -3.75230   -2.07404
       H    -3.22251  -11.15315   -2.90740
       O    -2.78297  -11.21102   -3.79236
      H1    -2.88126  -10.34661   -4.18822
       H     2.28140   -3.34602   -5.11456
       O     1.68916   -2.72994   -4.61416
      H1     0.98882   -2.57782   -5.24700
       H    -1.54941   -3.47712   -9.03933
       O    -2.35579   -3.07335   -9.21845
      H1    -2.75847   -2.88604   -8.35466
       H    -1.34811    1.02142   -4.33330
       O    -0.76228    1.56145   -4.83254
      H1    -0.10345    1.71384   -4.14710
       H     3.95757   -7.16292   -4.40223
       O     3.01770   -6.92795   -4.54647
      H1     2.59111   -7.43524   -5.22355
       H    -2.48522   -7.54266    0.17803
       O    -1.81231   -8.17943    0.40386
      H1    -1.09100   -7.62882    0.70827
       H     3.59334    0.18509   -4.30756
       O     2.73180   -0.05404   -4.68157
      H1     2.70763   -1.01947   -4.80158
       H     2.53084   -8.46825   -7.02822
       O     1.79874   -8.47317   -6.38967
      H1     1.87250   -9.32940   -5.91954
       H     2.76892   -8.48259   -1.48025
       O     2.78746   -9.36156   -1.89647
      H1     2.76841   -9.21619   -2.86033
       H    -5.39422   -5.80907   -8.36293
       O    -4.67286   -6.28350   -7.93647
      H1    -4.19072   -6.72668   -8.64272
       H    -5.19981   -5.09280   -3.61134
       O    -5.28642   -4.80787   -2.68944
      H1    -4.75881   -4.00109   -2.64275
       H    -0.87200  -10.83516   -8.01544
       O    -1.70948  -10.39305   -7.76376
      H1    -1.73107  -10.16668   -6.81348
       H    -1.58207    0.01099   -9.00074
       O    -1.71535   -0.57123   -9.75748
      H1    -1.83911   -1.45615   -9.34697
       H    -1.55301   -8.30949   -5.55794
       O    -2.17723   -8.66812   -4.97450
      H1    -2.81672   -7.92820   -4.87678
       H    -3.19635   -5.57640    0.14389
       O    -4.13863   -5.80893   -0.02781
      H1    -4.27794   -5.57565   -0.92125
       H     4.42822   -7.35547   -0.88805
       O     3.53459   -7.19471   -0.55659
      H1     3.33441   -6.23435   -0.67605
       H     3.26400   -3.75027   -0.41476
       O     3.77589   -4.30356    0.15598
      H1     4.52686   -3.76192    0.56364
       H     0.28743   -7.70271   -7.08391
       O    -0.55229   -7.23757   -6.99293
      H1    -1.07103   -7.32876   -7.81487
       H    -1.62828   -7.56257   -9.93058
       O    -2.28588   -7.71848   -9.20002
      H1    -2.06172   -8.63260   -8.91892
       H     0.02809  -10.08435   -2.87880
       O    -0.02968   -9.29626   -3.49556
      H1    -0.93044   -9.21926   -3.91729
       H    -3.78253   -8.95819   -1.28659
       O    -3.39138   -9.78366   -1.49930
      H1    -2.66069  -10.03047   -0.92209
       H     3.78125   -3.00522   -8.32053
       O     3.58223   -3.97888   -8.32079
      H1     2.65877   -4.16026   -8.19272
       H    -4.57731   -4.55921   -5.78803
       O    -5.16469   -3.81746   -5.80973
      H1    -5.46595   -3.78933   -6.70967

