123
frame 4 | Written by MDAnalysis XYZWriter (release 2.4.3)
       H   -11.39215    9.10918    3.88862
       O   -12.18448    9.50222    4.27212
      H1   -12.83032    9.59873    3.52221
       H    -9.22940    8.97494    7.26130
       O    -8.37643    8.62618    7.36424
      H1    -8.50898    7.98235    8.09070
       H   -14.39944    9.68990    6.78679
       O   -14.04716   10.33359    7.43172
      H1   -13.35724    9.89903    7.91022
       H   -11.63067    9.11049    9.72552
       O   -11.80156    8.70208    8.88624
      H1   -12.18886    7.82897    9.10475
       H   -12.02290    8.82278   -0.84298
       O   -11.00475    8.65806   -0.80539
      H1   -10.97108    8.09875    0.03196
       H    -8.62825    3.63104    6.16404
       O    -8.02247    3.54997    5.40864
      H1    -7.34845    2.88875    5.65323
       H   -10.27372    6.28132    5.20029
       O    -9.58102    6.23122    4.55048
      H1    -8.74620    6.49504    5.01216
       H    -6.39738   12.27322    7.46783
       O    -5.91084   12.93655    7.96531
      H1    -6.45065   13.73342    7.90176
       H   -10.83774    4.50111    7.21357
       O   -10.21718    3.77072    7.32444
      H1    -9.62641    4.14953    8.02942
       H    -8.85632   10.90788    0.02472
       O    -9.76226   11.26711    0.12574
      H1   -10.45135   10.56542    0.06469
       H    -6.45326    5.24289    1.22333
       O    -6.71598    5.11158    0.29876
      H1    -7.53664    4.59088    0.30291
       H   -11.27801    9.13613    7.24716
       O   -10.68437    9.65465    6.61885
      H1   -11.10584    9.71044    5.77919
       H    -8.01825    8.46888    0.60134
       O    -8.42475    7.61730    0.65469
      H1    -7.70168    6.94056    0.58320
       H    -8.78758   12.37195    2.71112
       O    -8.38798   11.65710    2.24547
      H1    -9.12591   11.50049    1.56496
       H   -12.85956   11.73179    1.76343
       O   -13.47068   11.03451    2.03125
      H1   -13.78799   10.53211    1.25590
       H    -4.25639    9.98538    1.37903
       O    -3.89012   10.53376    2.07243
      H1    -4.52038   11.16337    2.37407
       H    -5.63196    8.25335    4.00162
       O    -6.07645    8.56975    3.22984
      H1    -5.50621    9.33173    2.96736
       H   -12.44304    6.57811    7.27800
       O   -11.70858    6.20829    6.69467
      H1   -12.15611    5.86360    5.89012
       H   -10.07089   12.53888   -0.99878
       O   -10.50205   13.36811   -1.34193
      H1   -10.08035   13.58949   -2.20258
       H   -14.21966    8.68620    0.27391
       O   -14.00937    9.50773   -0.19958
      H1   -14.69665    9.75800   -0.75596
       H   -13.03772    5.49233    3.41699
       O   -12.93905    6.33874    3.00582
      H1   -12.14186    6.43173    2.36890
       H    -7.27171    5.93124    5.87040
       O    -7.21551    6.83341    5.61001
      H1    -7.55058    7.28745    6.38296
       H    -5.49044   12.09256    3.87933
       O    -5.67303   12.52745    3.00497
      H1    -6.60273   12.33471    2.79175
       H    -6.89371   12.37557   -0.68918
       O    -7.12760   11.44873   -0.78686
      H1    -6.81287   11.34868   -1.65601
       H   -10.48305   13.76079    3.73177
       O    -9.69160   14.11652    3.31981
      H1   -10.04474   14.38909    2.44052
       H   -11.94538   11.58723    4.38911
       O   -11.64207   12.44823    4.67461
      H1   -11.04697   12.33669    5.38727
       H   -10.06352    4.05775    1.36918
       O   -10.86006    3.82313    0.83437
      H1   -11.05968    2.89319    1.01757
       H    -9.03532    9.87004    3.08166
       O    -9.57052    9.08283    3.22556
      H1    -9.02927    8.27759    3.47462
       H   -11.85407   13.26330   -0.31222
       O   -12.62432   13.11317    0.26210
      H1   -13.17593   13.92270    0.32857
       H   -14.20703    6.89723    1.58294
       O   -14.94302    7.44122    1.29066
      H1   -15.60847    6.81319    0.94331
       H    -8.99465    5.19128    3.04549
       O    -8.68980    4.43304    2.48379
      H1    -7.73698    4.55422    2.47113
       H   -15.28509    8.06710    4.89071
       O   -14.71776    8.69816    5.39855
      H1   -13.82384    8.59058    5.04205
       H    -9.94231   12.51681    8.27182
       O    -9.73279   12.05779    7.43894
      H1   -10.17978   11.19278    7.41310
       H    -4.84699    5.37317    4.65643
       O    -4.11593    4.97507    5.13529
      H1    -4.00490    4.10703    4.75131
       H    -6.85657    8.32968   -2.23053
       O    -5.94007    8.50245   -2.41856
      H1    -5.66201    7.64037   -2.81308
       H    -7.15009    9.98000    6.53401
       O    -7.19046   10.88049    6.21419
      H1    -8.11054   11.07064    6.28679
       H    -5.25009    6.08225    2.32073
       O    -5.96183    5.72060    2.87194
      H1    -6.43083    6.46289    3.17845
       H   -10.99308    5.71031    0.84779
       O   -10.93589    6.62977    1.05983
      H1    -9.96804    6.74135    1.25702
       H    -8.47641    6.81089   -2.40365
       O    -8.57687    7.76579   -2.33157
      H1    -9.16133    7.93750   -1.52891
       H    -4.26859    8.31932    6.41333
       O    -4.05549    8.49336    5.49202
      H1    -3.35605    9.19567    5.38810
       H    -4.57543   12.57744    5.91861
       O    -4.49611   11.79277    5.41919
      H1    -5.34444   11.34443    5.60510

