123
frame 9 | Written by MDAnalysis XYZWriter (release 2.4.3)
       H    -0.74004  -17.18577    3.09380
       O     0.19679  -17.22912    3.23583
      H1     0.61608  -16.47814    2.85087
       H    -4.55684  -17.90767   -3.63279
       O    -3.71987  -18.17190   -4.05384
      H1    -3.44315  -17.34260   -4.38973
       H     0.78602  -14.88307    1.61669
       O     1.51726  -14.95894    2.29569
      H1     2.35351  -15.15717    1.78462
       H    -6.29973  -15.27444    6.35949
       O    -5.76642  -15.78455    5.65858
      H1    -6.31727  -16.25634    5.08999
       H   -10.73236  -18.16688    6.38339
       O    -9.83085  -18.28165    6.05467
      H1    -9.64960  -19.24643    6.09740
       H    -9.10485  -18.67254    2.70484
       O    -8.72827  -19.39344    3.20136
      H1    -9.20101  -19.42534    4.07322
       H    -0.93126  -13.27106    4.90686
       O    -0.37650  -12.63126    5.34142
      H1     0.55213  -12.72278    5.07969
       H    -2.05973  -16.29428    8.97292
       O    -2.33261  -15.39562    8.65689
      H1    -2.46840  -15.44534    7.71345
       H   -11.07695  -17.13752    1.91646
       O   -10.10897  -17.21527    2.10591
      H1    -9.72972  -16.73080    1.36459
       H    -7.38405  -17.98569    3.51371
       O    -6.56784  -17.44124    3.46484
      H1    -6.58852  -16.91299    2.67924
       H    -4.08054  -12.74175    1.43523
       O    -3.78724  -13.27850    2.20450
      H1    -4.59352  -13.50036    2.71320
       H    -2.48091  -17.71566    4.40265
       O    -2.36663  -18.19530    5.18825
      H1    -1.52075  -17.78222    5.56288
       H    -5.60815  -19.99138    6.54890
       O    -6.53638  -20.12654    6.83609
      H1    -6.81140  -19.31311    7.22788
       H    -4.31334  -18.89704    8.51990
       O    -4.42324  -18.62491    9.47676
      H1    -3.51785  -18.33344    9.66002
       H    -3.77745  -14.98780   -0.58084
       O    -4.01930  -14.85206   -1.52191
      H1    -3.18790  -14.65642   -1.98335
       H     2.56566  -18.45951    0.51967
       O     3.51560  -18.26002    0.42441
      H1     3.81655  -18.61147   -0.45172
       H     3.21192  -17.63362    5.15450
       O     2.81405  -18.18554    5.84811
      H1     1.98315  -17.79143    6.04985
       H    -6.45957  -17.20652   -3.91676
       O    -6.03593  -16.95315   -3.10066
      H1    -6.17792  -16.04549   -2.94804
       H    -4.09350  -12.78630    7.36391
       O    -3.98859  -13.45847    6.66532
      H1    -4.78383  -14.04031    6.75369
       H    -6.86606  -14.18363    2.77601
       O    -6.16608  -14.02093    3.40133
      H1    -6.03555  -14.72774    4.01735
       H    -8.23974  -17.46715    7.17338
       O    -7.60181  -17.59942    7.90094
      H1    -6.97981  -16.84921    8.03790
       H    -1.08739  -14.80664    0.36875
       O    -1.37668  -15.73589    0.50587
      H1    -0.98467  -16.34114   -0.12196
       H    -2.55368  -10.31956    1.45943
       O    -1.97257  -10.96006    1.85007
      H1    -2.57075  -11.58977    2.28085
       H    -2.39936  -16.11158    1.95829
       O    -2.62767  -16.46851    2.84182
      H1    -2.88058  -15.67714    3.37238
       H    -0.60039  -14.78247    7.93006
       O     0.02076  -14.78180    7.21814
      H1    -0.17634  -13.95436    6.76696
       H    -6.29106  -13.52271   -3.46011
       O    -6.51114  -14.15096   -2.76829
      H1    -5.65892  -14.28471   -2.23150
       H    -3.91266  -17.97671    2.20608
       O    -4.38851  -18.75076    2.45527
      H1    -5.12836  -18.48425    2.99916
       H    -5.33060  -11.77034    0.47035
       O    -4.39493  -11.84348    0.13525
      H1    -4.36468  -12.55551   -0.48319
       H    -0.38271  -18.29191    7.68228
       O    -0.78312  -18.61994    8.53188
      H1    -1.13940  -19.52899    8.29885
       H    -1.05670  -12.30266    1.13408
       O    -0.74374  -13.08452    0.59710
      H1    -0.44340  -12.62195   -0.20435
       H    -6.43515  -16.82103    0.52654
       O    -6.37807  -16.14895    1.25738
      H1    -7.07792  -15.51029    0.99683
       H    -2.25658  -18.18986   -2.81572
       O    -1.53694  -18.36083   -2.12949
      H1    -2.02329  -18.94666   -1.48080
       H     0.11238  -17.59363   -2.38759
       O     0.92825  -17.20125   -2.44662
      H1     1.39985  -17.73737   -3.03521
       H    -7.72054  -12.78730    1.35013
       O    -8.01065  -13.72988    1.36519
      H1    -8.36678  -13.95472    0.49328
       H    -9.23373  -17.16381   -0.52974
       O    -9.51375  -16.30573   -0.32662
      H1    -9.79536  -16.07624   -1.22104
       H     0.79219  -18.28308    2.14007
       O     0.95406  -18.81986    1.29018
      H1     1.33440  -19.67952    1.54705
       H    -0.04545  -16.46215    6.46479
       O    -0.04754  -17.27964    5.91710
      H1     0.08114  -17.04984    4.94329
       H    -2.93462  -13.80363    3.45096
       O    -2.62332  -14.19049    4.31001
      H1    -3.10231  -13.79121    5.08297
       H    -6.49365  -18.93703   -0.23747
       O    -6.87069  -18.11684   -0.58062
      H1    -6.50788  -18.00774   -1.48422
       H    -5.12914  -12.28635    5.64394
       O    -5.63405  -11.92217    4.88878
      H1    -5.81480  -12.69351    4.28080
       H    -3.27486  -19.05713    6.46518
       O    -3.78349  -19.64793    6.99674
      H1    -3.09574  -20.15278    7.46079

