123
frame 9 | Written by MDAnalysis XYZWriter (release 2.4.3)
       H     8.78037   -0.29073    0.12151
       O     9.07648   -1.16008   -0.20749
      H1     9.93760   -1.32095    0.26527
       H     6.48301   -0.60047    2.45473
       O     6.77477   -1.43849    2.77485
      H1     6.75179   -2.01285    1.99800
       H     6.49430    3.64593    3.98130
       O     6.28213    2.89907    4.54392
      H1     7.04383    2.71155    5.11698
       H     7.81612   -2.50364    0.30884
       O     7.09097   -3.16470    0.52217
      H1     6.25292   -2.84728    0.14671
       H     6.81511   -6.03944   -0.02134
       O     7.41546   -5.55393   -0.60592
      H1     7.48481   -4.63592   -0.21036
       H     8.98911   -4.99269    4.76687
       O     9.72575   -4.30999    4.75684
      H1    10.21521   -4.51916    3.93045
       H    11.12258   -3.39143    6.02256
       O    11.41026   -3.50056    6.98485
      H1    12.16498   -2.79847    7.07268
       H     4.59644   -0.86775    5.62564
       O     3.83568   -0.24605    5.58784
      H1     4.02928    0.51464    6.23528
       H    11.64994    2.41565    6.49825
       O    10.87330    2.84649    6.88668
      H1    10.13431    2.45511    6.47576
       H     5.51249   -3.78357    5.08424
       O     5.39884   -4.68850    4.86733
      H1     4.57122   -4.61025    4.32364
       H     9.30627   -2.43849    3.73895
       O     9.38520   -1.50459    3.47541
      H1     8.48154   -1.25812    3.26177
       H     3.90072   -4.39860    2.32603
       O     3.43812   -4.96805    2.94469
      H1     2.52344   -4.61136    2.82731
       H     6.51676    3.17565    1.13710
       O     6.98920    3.35240    0.33059
      H1     6.51986    4.14196    0.02247
       H    12.19589   -5.88842   -0.40874
       O    12.58611   -5.04576   -0.14876
      H1    13.40993   -5.19216    0.28629
       H    12.38422   -4.54809    3.52016
       O    12.66832   -3.80654    4.10261
      H1    13.60333   -3.98744    4.15328
       H    10.11881   -7.78175    2.86881
       O     9.28776   -7.39851    2.51861
      H1     9.19004   -7.65611    1.56042
       H    14.32164    1.99890    4.38367
       O    14.71652    1.59113    3.58892
      H1    13.88259    1.27767    3.11259
       H     7.15073   -6.07437    7.32709
       O     7.87058   -5.53788    7.61728
      H1     8.55873   -5.60155    6.93277
       H    12.14889   -1.76236    1.29757
       O    11.48703   -2.26125    0.80975
      H1    11.33466   -3.08407    1.28618
       H    15.26064   -3.02783    5.03136
       O    15.42355   -3.96245    5.04486
      H1    16.32405   -4.05426    5.41432
       H    13.50334   -1.54337    8.28048
       O    13.67327   -1.98586    7.43993
      H1    13.98611   -1.30492    6.79562
       H     3.37910   -0.05973    3.61479
       O     2.76125    0.03403    2.86152
      H1     2.29924   -0.79489    2.91666
       H     8.57045    1.79614    7.10461
       O     8.41599    1.86150    6.17631
      H1     9.07935    1.25075    5.79757
       H     7.52458    1.26996    2.19624
       O     6.53328    1.26260    2.25855
      H1     6.32131    1.62830    3.17372
       H    10.85984    0.68447   -0.98927
       O    10.71656    1.50789   -0.51989
      H1     9.88916    1.78113   -0.87045
       H    11.59000   -4.90504    1.43015
       O    11.04450   -4.84713    2.20791
      H1    10.56906   -5.69276    2.35072
       H    12.21663    4.00332    0.98482
       O    11.44088    4.02896    1.56854
      H1    11.44955    4.96282    1.85837
       H     6.96645   -5.72527    4.48124
       O     7.82147   -6.20748    4.62953
      H1     8.23269   -6.35500    3.76349
       H    12.51426   -1.65462    3.41081
       O    12.95693   -0.96389    2.87930
      H1    12.58617   -0.15180    3.27238
       H     8.79831    2.63310   -2.45992
       O     8.52333    2.02774   -1.71151
      H1     7.87838    2.39648   -1.08687
       H     9.97666   -2.48603    7.72176
       O     9.42077   -1.89468    8.28481
      H1     8.51908   -2.27075    8.22459
       H     6.44816   -2.28041    6.24113
       O     5.83646   -2.22525    5.51092
      H1     6.39348   -2.00764    4.72933
       H    15.74310   -1.02210    4.88759
       O    14.78489   -1.25033    4.95846
      H1    14.31213   -0.98341    4.17806
       H    10.79052   -5.30140    6.70701
       O    10.53745   -6.17512    7.04782
      H1    10.63441   -6.04526    8.02514
       H     4.55222   -1.70884    0.79027
       O     4.31969   -2.58762    0.60725
      H1     3.39408   -2.59273    0.22671
       H     6.04976   -2.85871    8.48512
       O     6.93449   -2.94487    8.04154
      H1     7.07922   -3.89367    7.87000
       H    11.78749    2.36973    2.77793
       O    12.03737    1.63249    3.34975
      H1    11.32484    1.56405    4.02001
       H     7.99498    0.11775   -2.30942
       O     7.78104   -0.75788   -2.67196
      H1     8.18643   -1.25192   -1.94109
       H     5.23134    0.69104    1.16266
       O     4.47748    0.32145    0.68448
      H1     3.72918    0.40709    1.31291
       H    10.00865   -0.39105    6.52290
       O    10.27614    0.02921    5.72980
      H1    10.00049   -0.50778    5.00691
       H     9.83720    1.38189    1.12600
       O     9.31463    0.81398    1.79747
      H1     9.96055    0.14640    2.03895

