123
frame 11 | Written by MDAnalysis XYZWriter (release 2.4.3)
       H    -7.26626   -9.73762    3.91724
       O    -6.63633   -9.53459    4.61060
      H1    -7.04906   -8.79855    5.10936
       H   -16.77486   -7.21153   -2.02046
       O   -16.16364   -6.71595   -1.43527
      H1   -15.30724   -7.20343   -1.53015
       H    -7.01748   -4.79899    5.08763
       O    -7.21128   -4.38764    4.25483
      H1    -6.48864   -3.83989    3.99257
       H    -8.68926   -1.83968    2.42440
       O    -7.76982   -1.56125    2.47750
      H1    -7.78817   -0.61701    2.23910
       H    -8.72993   -8.82720    1.85553
       O    -8.02626   -9.41209    2.10611
      H1    -7.23911   -8.85210    1.97379
       H   -12.73881   -2.11077   -0.03167
       O   -11.95795   -2.16167   -0.67977
      H1   -11.26495   -2.05619   -0.02439
       H   -11.81266   -5.22712    3.09960
       O   -12.19679   -5.19543    4.03268
      H1   -11.43695   -5.60327    4.56004
       H    -8.69770   -3.95491    6.82914
       O    -8.65810   -3.07005    6.43135
      H1    -8.14626   -3.28163    5.64317
       H   -10.04318    0.57941    1.82701
       O    -9.54320    1.23931    1.32817
      H1    -9.52841    0.95377    0.39317
       H   -13.38902    0.32828    1.81164
       O   -13.69661    0.08195    2.65117
      H1   -14.01986   -0.81718    2.45382
       H   -12.15398   -0.68209    4.23787
       O   -11.22808   -0.95607    4.00596
      H1   -10.75466   -0.81541    4.83605
       H   -13.19999   -2.15035    6.12190
       O   -13.57045   -1.19342    6.17211
      H1   -14.54066   -1.18271    6.06529
       H   -10.53127   -3.14898    6.28726
       O   -11.49654   -3.26037    6.07708
      H1   -11.54027   -3.72704    5.18494
       H    -7.17768   -7.31274   -0.92860
       O    -7.62167   -6.59166   -0.46720
      H1    -7.10717   -6.38405    0.29313
       H   -15.85307   -3.89320    2.95235
       O   -16.19080   -4.37061    2.20227
      H1   -15.92633   -5.31189    2.28405
       H   -11.10768   -9.65975    1.63839
       O   -10.86152   -8.73865    1.43040
      H1   -10.64810   -8.74955    0.50695
       H   -11.45398  -10.35610    4.03135
       O   -12.32710  -10.53104    3.68705
      H1   -12.74707  -10.76375    4.51389
       H   -13.69703   -4.11069    4.63135
       O   -14.42342   -3.46791    4.54066
      H1   -15.15330   -3.76902    5.11676
       H    -9.64077  -10.91079    5.35911
       O    -9.65699  -10.13815    4.70430
      H1    -8.89052  -10.17281    4.15362
       H   -12.64679   -4.63919   -2.47758
       O   -12.19336   -5.27195   -1.86228
      H1   -11.71808   -4.73764   -1.26312
       H   -13.89493   -7.62065    5.68645
       O   -13.12216   -8.05673    6.16505
      H1   -13.19238   -7.72969    7.08619
       H   -15.36786   -8.99187    2.43660
       O   -15.08110   -9.88889    2.62004
      H1   -14.11803   -9.80964    2.78562
       H    -9.92813   -7.07681    5.83791
       O   -10.78097   -6.61152    5.88044
      H1   -11.52454   -7.18942    5.81785
       H   -10.35242   -3.34555    1.60268
       O   -10.08899   -2.43159    1.75924
      H1   -10.54390   -2.18817    2.60272
       H   -11.64452   -5.73984    1.28863
       O   -10.87239   -5.21893    1.56840
      H1   -10.11624   -5.75146    1.28177
       H   -18.78774   -4.89538    3.99725
       O   -18.80536   -4.14916    3.40664
      H1   -18.12494   -4.38125    2.73952
       H    -8.04402   -2.42875   -1.43993
       O    -7.89941   -1.69263   -0.88502
      H1    -7.97367   -1.90505    0.02701
       H    -5.99932   -4.90037    1.86672
       O    -6.94294   -5.04903    1.66788
      H1    -7.18440   -4.97110    2.60555
       H   -14.97855   -7.25744    1.70379
       O   -15.75465   -7.25315    2.26070
      H1   -16.53045   -7.26424    1.69366
       H   -10.66795   -5.51360    7.41989
       O   -10.06055   -4.98383    7.99625
      H1   -10.76947   -4.36306    8.22666
       H   -12.89845   -8.23968   -1.88841
       O   -13.43899   -7.51215   -1.50481
      H1   -12.98917   -6.70333   -1.63710
       H   -15.78400  -10.49706    6.55188
       O   -14.81006  -10.44624    6.33918
      H1   -14.60210   -9.49331    6.29233
       H    -8.44855   -4.70966   -2.70874
       O    -7.88267   -4.41041   -2.00612
      H1    -7.77509   -5.15824   -1.38951
       H    -8.45188   -8.08719    6.82941
       O    -8.59451   -7.92643    5.91687
      H1    -9.10582   -8.69850    5.62010
       H   -15.34509   -6.18416    5.23726
       O   -15.45248   -7.14764    4.94858
      H1   -15.58259   -7.06829    3.98293
       H   -16.33739   -4.18565    7.14373
       O   -16.29898   -4.72554    6.33247
      H1   -17.14533   -5.15025    6.25633
       H   -17.51963   -6.99419    4.94719
       O   -18.34896   -6.52902    5.09479
      H1   -19.05847   -7.05352    4.89191
       H   -10.63228   -8.98504   -2.25806
       O   -11.14463   -9.37307   -1.55322
      H1   -11.82447   -9.93032   -2.03385
       H   -13.18481   -7.44622    0.24080
       O   -13.21131   -7.11322    1.13453
      H1   -12.52993   -7.55427    1.61968
       H   -14.87017   -2.01421    1.09791
       O   -14.22237   -2.63817    1.52202
      H1   -14.68977   -3.37343    1.89363
       H   -12.96559   -3.70996    9.01940
       O   -12.95235   -4.34006    8.26481
      H1   -12.58545   -3.88940    7.49466

