126
frame 3 | Written by MDAnalysis XYZWriter (release 2.4.3)
       H    -1.02419  -15.83124  -10.51186
       O    -1.99074  -15.93717  -10.56541
      H1    -2.38826  -15.04103  -10.61764
       H     3.26516  -16.51481   -9.10747
       O     3.13571  -17.48904   -9.15133
      H1     3.85041  -17.83433   -9.72931
       H    -5.04408  -11.84405  -16.02373
       O    -4.69917  -12.72075  -15.63925
      H1    -4.26222  -13.27605  -16.34086
       H     0.91139  -19.19525  -15.72749
       O     1.84183  -18.99304  -15.55734
      H1     2.30903  -19.43581  -16.24499
       H     0.52684   -9.86538  -12.03719
       O     0.81602   -9.52926  -12.89868
      H1     0.53873  -10.16681  -13.61997
       H     5.16167  -16.86842  -14.84760
       O     5.46615  -16.21514  -14.18917
      H1     6.31007  -16.51387  -13.80812
       H     6.61826  -12.75513  -11.30677
       O     5.78243  -12.74215  -11.75614
      H1     5.89066  -12.62293  -12.69403
       H    -4.37491  -18.61931  -14.19023
       O    -4.04566  -17.86660  -14.61910
      H1    -3.33622  -17.47466  -14.07546
       H     3.33199  -17.03476  -16.71444
       O     4.27126  -17.34143  -16.82435
      H1     4.44074  -18.13965  -16.28401
       H    -2.05410  -11.28038  -17.29481
       O    -1.48139  -12.04000  -17.58192
      H1    -1.66466  -12.15343  -18.54823
       H     5.40573  -12.82948  -15.39672
       O     5.41419  -13.62542  -15.94515
      H1     5.41404  -14.35382  -15.34780
       H    -5.34850  -14.90262  -11.81294
       O    -4.99199  -14.05329  -12.07975
      H1    -5.77568  -13.48403  -12.08401
       H    -5.09896  -16.43620  -14.73520
       O    -5.63903  -15.62597  -14.93227
      H1    -5.04772  -14.84741  -14.72966
       H    -1.77485  -16.85287  -12.01359
       O    -1.71088  -17.22864  -12.88457
      H1    -1.03294  -17.92640  -13.00809
       H     2.42235  -11.19269  -17.63133
       O     2.08965  -10.64636  -16.90946
      H1     2.82007  -10.09562  -16.51865
       H     0.81041  -15.83791  -14.59627
       O     1.53021  -16.22334  -15.12349
      H1     1.50396  -17.18580  -14.93780
       H     1.42729  -15.95593  -16.89056
       O     1.66381  -16.16780  -17.79494
      H1     2.32999  -15.53616  -18.08846
       H     3.08194  -19.10302  -12.20274
       O     2.17614  -18.83152  -12.37321
      H1     2.27726  -17.89412  -12.63069
       H     2.10520  -11.28677   -8.69702
       O     2.97358  -10.98123   -8.76904
      H1     2.87351  -10.38922   -9.55212
       H    -2.54915  -13.82465  -17.20726
       O    -3.32161  -14.33987  -17.41337
      H1    -3.13816  -15.26319  -17.25932
       H    -3.96453  -13.58565  -10.69335
       O    -3.12004  -13.56710  -10.23726
      H1    -3.14205  -13.08558   -9.45155
       H     1.19733  -13.46116  -15.85584
       O     0.72954  -13.51902  -16.67758
      H1    -0.15741  -13.09911  -16.57680
       H     0.32854  -13.89226  -12.78013
       O     0.41149  -13.72195  -13.71358
      H1    -0.42785  -13.34414  -13.83559
       H    -1.24313   -7.75038  -14.67051
       O    -1.02565   -7.50304  -13.74736
      H1    -0.41323   -8.16561  -13.38027
       H    -0.97029  -10.88991  -10.77448
       O    -0.03563  -10.77860  -10.42809
      H1     0.31250  -11.69634  -10.45798
       H    -3.54178   -7.97504  -13.97190
       O    -3.25632   -8.87227  -14.01061
      H1    -2.31187   -8.74984  -14.02965
       H     4.14804  -16.27293  -13.12585
       O     3.15723  -16.23655  -12.92326
      H1     2.68059  -16.17252  -13.78152
       H     3.19193  -13.27890  -18.40372
       O     3.74563  -13.96849  -18.14733
      H1     4.01415  -13.94112  -17.20613
       H    -2.59812  -15.53393   -6.70273
       O    -1.73564  -15.90830   -6.62983
      H1    -1.39848  -15.93856   -7.52427
       H     3.10627  -14.23390  -12.21857
       O     3.31801  -13.48042  -11.58591
      H1     4.25256  -13.17009  -11.60366
       H     5.58868  -10.34835  -13.69442
       O     5.13773  -11.09314  -14.16033
      H1     4.34119  -11.14922  -13.70040
       H    -1.85761  -16.97467  -17.23163
       O    -2.80596  -17.00760  -17.06565
      H1    -2.91802  -17.18829  -16.12700
       H     1.33602  -18.39210  -10.23258
       O     0.41652  -18.19377  -10.28028
      H1    -0.08514  -18.93606  -10.68319
       H    -2.64011  -10.59291  -11.38319
       O    -2.28797  -11.51785  -11.59382
      H1    -2.65819  -12.20025  -10.98097
       H    -0.15465  -19.43548  -17.46873
       O    -0.32390  -18.54091  -17.15031
      H1     0.57070  -18.12755  -17.20064
       H     1.13240  -15.93044   -7.73056
       O     0.46525  -16.01023   -8.44440
      H1     0.78383  -16.60417   -9.08781
       H     1.37934  -13.04091  -10.41019
       O     0.49156  -13.37439  -10.42564
      H1     0.56030  -14.04937   -9.74700
       H     3.36951  -14.66812   -9.96723
       O     3.50175  -14.88906   -9.05570
      H1     4.47029  -14.88340   -8.94533
       H    -2.96905  -12.19137  -14.53242
       O    -2.02529  -12.32303  -14.31832
      H1    -2.07140  -12.22439  -13.35483
       H    -3.59015  -16.95515  -10.09873
       O    -4.30938  -17.54824   -9.90037
      H1    -4.97546  -17.06036   -9.37492
       H    -0.70391  -11.09471  -15.08039
       O    -0.04191  -10.40757  -15.17913
      H1     0.69475  -10.63546  -15.79379
       H     2.97878  -11.97554  -12.25202
       O     3.10085  -11.03872  -12.49188
      H1     2.40932  -10.71340  -13.08610

