126
frame 2 | Written by MDAnalysis XYZWriter (release 2.4.3)
       H    -6.78482   -0.04501   12.86042
       O    -5.99284    0.15509   12.24553
      H1    -5.38807   -0.58095   12.37756
       H   -10.19920    5.48085   13.39178
       O   -11.00834    5.64221   13.90635
      H1   -11.43208    6.46094   13.54652
       H   -13.30284    3.56428   17.01633
       O   -12.40353    3.76489   16.66042
      H1   -11.84556    3.36234   17.37031
       H    -7.39236   -4.77466   17.07960
       O    -7.61658   -4.33620   17.91168
      H1    -6.88157   -4.52173   18.56908
       H   -10.79669   -4.76321   16.37268
       O   -10.68253   -3.87417   16.06319
      H1    -9.80853   -3.86538   15.79045
       H    -1.02762   -1.34958   18.67044
       O    -0.59658   -2.09978   18.29577
      H1    -1.17751   -2.84898   18.30407
       H    -4.48161    3.58022   17.50774
       O    -3.50569    3.58153   17.36340
      H1    -3.38865    4.25407   16.67166
       H    -8.25524    1.63787   11.28643
       O    -8.79257    1.84639   12.09829
      H1    -9.67480    1.60816   11.84521
       H    -7.72379    2.46358   14.15405
       O    -6.82445    2.61016   14.41807
      H1    -6.49851    3.48961   14.12237
       H     0.07831    0.69215   16.34726
       O     0.18047    1.61183   16.18016
      H1    -0.30159    1.99317   16.91365
       H    -7.66827    8.07406   18.55016
       O    -7.86052    9.00053   18.81030
      H1    -8.30702    9.06400   19.66584
       H    -7.86774    4.79157   12.79661
       O    -8.79932    4.55417   12.58156
      H1    -8.82896    3.62977   12.47894
       H   -13.00936   -0.12013   19.07951
       O   -13.85619    0.28534   19.08320
      H1   -14.54584   -0.37417   19.27812
       H   -14.78780    3.28748   18.79986
       O   -14.72290    2.71867   18.06782
      H1   -14.22171    1.93023   18.41101
       H   -14.29863    6.37955   16.92870
       O   -13.69849    6.79583   17.61604
      H1   -12.85920    6.76531   17.15849
       H   -10.16299   -1.12834   19.57571
       O   -10.86886   -0.42597   19.51386
      H1   -11.36156   -0.77889   18.77285
       H    -8.98361    8.37376   14.95199
       O    -8.76688    7.62788   15.55364
      H1    -9.61875    7.38861   15.94687
       H    -6.76408    7.54283   15.19430
       O    -5.91302    7.48311   14.74414
      H1    -5.24408    7.45306   15.42227
       H    -7.93967   -1.64186   17.57943
       O    -8.12581   -0.92275   16.95687
      H1    -7.24179   -0.74327   16.61585
       H   -10.50347    2.05793   19.22032
       O   -10.89238    2.77619   18.68933
      H1   -10.98307    3.54773   19.27443
       H    -3.78407   -2.19761   13.05471
       O    -4.59547   -1.85782   13.38157
      H1    -5.27434   -2.57479   13.31779
       H    -7.88150    6.81095   17.01990
       O    -7.14423    6.71556   17.68974
      H1    -6.60265    5.92398   17.47888
       H    -1.38039    1.20605   19.24764
       O    -1.68971    0.30141   19.33203
      H1    -1.48660    0.14660   20.25711
       H    -5.24278    2.03015   15.19022
       O    -4.30989    1.89532   15.48217
      H1    -4.06269    2.57630   16.09144
       H    -2.49901    5.78411   15.23480
       O    -3.33791    5.98781   15.69282
      H1    -3.21259    6.96532   15.90143
       H    -1.89221    3.25803   18.12496
       O    -1.08509    2.75988   18.20872
      H1    -0.59583    3.24044   18.89882
       H   -12.78718   -1.44057   16.55059
       O   -12.33309   -1.91026   17.26245
      H1   -11.78532   -2.59383   16.79769
       H    -6.08016    6.02642   13.77981
       O    -6.18155    5.17505   13.35676
      H1    -5.81570    5.37554   12.47626
       H    -3.19990   -4.13517   16.16606
       O    -2.37858   -3.61863   16.19694
      H1    -2.59332   -2.87004   16.71328
       H    -7.27379   -0.66203   14.34122
       O    -7.94114   -0.82489   13.69018
      H1    -8.67903   -0.28411   14.13005
       H    -7.93312    1.99867   17.92760
       O    -7.22765    2.40204   18.40283
      H1    -7.68648    3.13876   18.80421
       H   -10.50101    0.79970   15.16403
       O    -9.57288    0.62295   15.14266
      H1    -9.37145    0.24113   16.00532
       H    -5.19099   -1.05620   14.93598
       O    -5.72992   -0.54754   15.58458
      H1    -5.38470    0.37941   15.52256
       H   -12.16096    1.41296   11.41671
       O   -11.41644    0.91179   11.78162
      H1   -11.47814    1.14615   12.69863
       H    -3.21222   -0.60212   17.97124
       O    -3.63535   -1.19127   17.31314
      H1    -4.31066   -0.59537   16.96960
       H   -11.36680    5.62749   16.88273
       O   -11.14589    6.44623   16.39535
      H1   -11.23308    6.20503   15.43101
       H    -1.77136    2.75054   14.04998
       O    -2.27446    2.06077   13.57346
      H1    -2.97035    1.87456   14.24683
       H    -6.70966    3.40633   17.27513
       O    -6.37108    4.18394   16.75610
      H1    -6.80926    4.14480   15.89228
       H    -3.42871    2.27275   12.48360
       O    -4.31966    2.42649   11.96105
      H1    -4.91148    1.66746   12.21052
       H    -4.20855    9.14254   17.05150
       O    -3.69015    8.47176   16.52738
      H1    -2.88826    8.92466   16.26541
       H    -4.01108    7.53533   18.44217
       O    -4.15428    7.13893   19.32208
      H1    -5.00377    7.48826   19.67220
       H   -12.22091    2.43446   15.20170
       O   -12.06378    1.75320   14.56839
      H1   -12.50933    0.97209   14.91853

