126
frame 1 | Written by MDAnalysis XYZWriter (release 2.4.3)
       H    14.63501  -12.81357    4.15199
       O    13.75875  -12.66009    3.66168
      H1    13.24280  -13.47531    3.81306
       H    16.06610  -14.28171    0.42714
       O    15.80728  -13.55012   -0.19727
      H1    16.02175  -13.75734   -1.12987
       H    16.84881  -11.93850   -0.12938
       O    17.45202  -11.22753    0.00011
      H1    18.28279  -11.60873    0.28903
       H    15.20175   -6.18561    1.93202
       O    14.29586   -6.07979    1.94796
      H1    13.90345   -6.38219    1.14820
       H    12.47317  -10.53355    0.97190
       O    11.96671   -9.76696    0.67230
      H1    11.14058   -9.80328    1.11929
       H    16.64510   -9.72724    0.46601
       O    16.54176   -8.74795    0.59837
      H1    16.01105   -8.65152    1.42942
       H    13.85960   -6.04001   -4.11736
       O    13.78057   -6.29746   -3.21682
      H1    14.55450   -6.66840   -2.78046
       H    13.57712  -12.21064    1.87578
       O    13.46154  -12.24060    0.91547
      H1    14.29187  -12.72498    0.65877
       H    17.73313  -11.02222    2.20395
       O    17.22110  -10.89783    3.02470
      H1    16.57880  -10.20826    2.87906
       H    14.05900   -5.76204    4.57283
       O    13.50121   -5.61730    5.32431
      H1    13.32980   -6.40313    5.90206
       H    16.38141  -12.87564    5.51791
       O    16.53229  -12.99262    4.58841
      H1    16.82394  -12.19539    4.11542
       H    14.07751   -9.26411    6.18629
       O    14.81874   -9.84773    6.34525
      H1    14.62822  -10.17542    7.23475
       H    14.29721   -9.82011    3.43340
       O    14.90438   -9.30174    2.94937
      H1    15.01455   -8.44983    3.40755
       H    19.15149   -4.43364    7.70985
       O    18.72910   -3.57712    7.85825
      H1    18.11485   -3.65418    8.59376
       H    18.33153   -4.18845   -1.00059
       O    17.79665   -4.14420   -1.78474
      H1    17.32753   -3.30136   -1.68325
       H    16.95760   -6.78857    4.45216
       O    15.97954   -7.05835    4.38624
      H1    15.80212   -7.27477    5.29029
       H    18.72329   -4.79761   -2.90944
       O    19.35060   -5.01558   -3.63668
      H1    19.83643   -4.19251   -3.79595
       H    17.68075   -0.04322    4.90776
       O    18.15845   -0.87015    4.67986
      H1    17.76826   -1.20021    3.89920
       H    12.99385   -9.48552   -0.83433
       O    13.45099   -9.01884   -1.57569
      H1    14.41253   -9.17075   -1.39578
       H    16.92611   -2.28900    5.56162
       O    16.92661   -3.26011    5.79336
      H1    17.69493   -3.35324    6.39234
       H    15.92678  -14.75683   -2.98190
       O    16.11319  -13.82598   -2.77117
      H1    15.30899  -13.31084   -2.95910
       H    14.78350   -3.92783    0.85752
       O    14.72524   -2.92158    0.90977
      H1    15.13346   -2.68761    0.08463
       H    18.96134  -14.70639   -1.21229
       O    19.38448  -14.16514   -1.89070
      H1    18.62823  -13.70349   -2.27600
       H    19.56431   -3.02075    4.22577
       O    18.95644   -3.68748    3.82316
      H1    18.18001   -3.48612    4.36292
       H    19.25263  -10.51864    5.40529
       O    18.92942   -9.67697    5.12406
      H1    18.37502   -9.92394    4.33780
       H    18.27327   -8.49235    1.53191
       O    19.10687   -8.23926    2.01551
      H1    19.67471   -7.99186    1.31414
       H    16.29796  -15.94600    4.38744
       O    15.56305  -15.38323    4.04731
      H1    16.01307  -14.53273    4.13228
       H    12.46644   -5.40643   -0.59499
       O    12.71430   -6.30555   -0.40229
      H1    12.86598   -6.79084   -1.27419
       H    15.42876   -1.30576    2.28862
       O    15.03598   -0.60282    2.85569
      H1    14.10751   -0.82676    2.85364
       H    18.87208   -6.95822    3.35360
       O    18.65282   -6.43947    4.17687
      H1    18.61139   -5.43553    3.91326
       H    17.91213   -1.13473    1.56826
       O    17.60709   -1.78962    2.22453
      H1    18.36556   -2.33108    2.47917
       H    18.64203   -8.75213    6.59439
       O    18.50012   -8.32427    7.45130
      H1    19.06546   -7.55854    7.39583
       H    19.25581   -8.78578   -3.47070
       O    18.77429   -8.16027   -4.00105
      H1    19.52309   -7.49266   -4.14808
       H    17.53826  -15.19164    1.39549
       O    16.57621  -15.41785    1.44836
      H1    16.38269  -15.40921    2.39902
       H    18.90112  -13.06745   -4.84556
       O    18.23722  -12.38999   -4.54630
      H1    17.49189  -12.97305   -4.24102
       H    19.00349   -1.92980   -2.83994
       O    19.61819   -1.34506   -2.41926
      H1    19.13301   -0.60391   -2.14218
       H    12.22054   -6.83142    2.77788
       O    11.54832   -7.26290    2.18646
      H1    12.11041   -7.78071    1.57215
       H    15.60126   -8.50707    6.81702
       O    15.91657   -7.57531    7.04805
      H1    16.86894   -7.82904    7.15358
       H    16.50841   -8.32101   -6.44902
       O    17.48098   -8.12265   -6.60134
      H1    17.94183   -8.21440   -5.76815
       H    17.00307   -7.79792   -2.40190
       O    16.11892   -7.81141   -2.00428
      H1    16.40407   -7.86387   -1.06298
       H    18.62380  -11.24725   -3.49920
       O    18.96588  -10.65104   -2.76776
      H1    18.48181  -10.92285   -1.92287
       H    18.99269   -8.65568    9.06774
       O    19.04518   -9.03584    9.92305
      H1    18.55018   -9.81913    9.84815

