126
frame 0 | Written by MDAnalysis XYZWriter (release 2.4.3)
       H   -16.69225   12.00384   -1.98552
       O   -15.98213   11.38096   -2.12205
      H1   -15.68091   11.34448   -3.07379
       H   -10.85830   17.52111   -1.65519
       O   -11.51274   17.51379   -0.91983
      H1   -11.15471   16.79059   -0.41482
       H   -11.33229   12.04974  -11.88614
       O   -12.08735   12.41190  -11.46931
      H1   -12.64609   12.40699  -12.25411
       H   -14.73154   16.03449  -12.89529
       O   -15.09599   16.45970  -12.06019
      H1   -15.59725   15.86252  -11.51360
       H   -10.03627   15.66109  -10.24743
       O   -10.68486   15.56933  -10.96227
      H1   -10.40907   16.02745  -11.77329
       H   -13.36029   16.83705   -0.61754
       O   -14.14469   16.29087   -0.42491
      H1   -14.92518   16.85215   -0.37696
       H   -18.93975   16.60353   -5.37960
       O   -18.55855   17.40689   -5.77493
      H1   -19.22722   18.06822   -5.40734
       H   -17.10173   15.77834  -13.45598
       O   -17.57331   16.03757  -14.26571
      H1   -17.02510   16.62649  -14.81081
       H   -12.56680   12.49716   -5.96190
       O   -12.85297   13.41119   -6.07416
      H1   -12.29591   13.65542   -6.83278
       H   -13.30051   10.93403   -8.68813
       O   -12.54507   10.60579   -9.15453
      H1   -12.59337   11.08193   -9.97098
       H   -13.37204   17.70671   -5.78672
       O   -13.02966   17.98272   -4.88843
      H1   -12.53188   17.18860   -4.54421
       H   -16.11832   18.45906   -0.73175
       O   -16.64262   17.68044   -0.95091
      H1   -16.56549   17.54285   -1.91353
       H   -10.91986   17.77347  -12.90968
       O   -10.71730   16.91253  -13.30930
      H1    -9.76186   16.80360  -13.33639
       H   -15.79206   13.76457   -2.81437
       O   -14.97472   14.11248   -3.22854
      H1   -14.29554   13.78989   -2.58413
       H   -10.87037   16.73275   -6.34945
       O   -11.42659   16.06691   -6.76283
      H1   -12.34017   16.35946   -6.81848
       H   -13.12332   15.30310  -14.43604
       O   -14.13270   15.30794  -14.34050
      H1   -14.40487   15.16135  -15.24462
       H   -15.61876   12.42616   -4.84416
       O   -15.41824   11.44780   -4.81667
      H1   -16.29395   11.04679   -4.93870
       H    -9.09551   18.22330   -5.77035
       O    -9.37987   17.37228   -5.43227
      H1    -8.63720   16.77882   -5.63815
       H   -17.56311   14.47334  -10.61170
       O   -16.70931   14.08393  -10.76021
      H1   -16.50249   13.59561   -9.86037
       H   -12.37270   16.19104  -10.63304
       O   -12.99465   16.77463  -10.17106
      H1   -13.85450   16.48950  -10.55004
       H    -8.43819   16.76277   -8.50998
       O    -8.63754   16.14654   -9.20285
      H1    -7.84597   15.53138   -9.15714
       H   -12.31017   14.73503   -4.83664
       O   -12.47231   15.24377   -3.99392
      H1   -13.23782   14.84246   -3.53111
       H    -9.36651   17.73091   -3.72017
       O    -9.49317   17.92603   -2.76358
      H1    -9.53713   18.89259   -2.71533
       H   -16.89454   15.92771   -3.68755
       O   -17.05317   16.82326   -3.54445
      H1   -17.48186   17.08853   -4.37327
       H   -18.50118   12.80733   -2.45704
       O   -17.85818   13.42924   -2.82005
      H1   -18.17823   14.23158   -2.33736
       H   -14.86069   15.36890   -6.85834
       O   -15.24686   14.48574   -6.84375
      H1   -14.63511   13.92927   -6.39258
       H   -19.93602   15.41729  -10.85267
       O   -19.09767   15.40366  -10.34594
      H1   -19.23578   16.10777   -9.69931
       H    -9.00149   11.16220   -7.28120
       O    -9.26964   11.97571   -6.84786
      H1    -9.97991   12.51197   -7.30597
       H   -18.87722   14.04970   -6.94292
       O   -18.44135   13.57906   -6.24749
      H1   -17.63835   13.24668   -6.70634
       H   -11.48011   13.46733   -9.05234
       O   -11.05947   13.65906   -8.23167
      H1   -11.15339   14.60906   -7.99632
       H   -15.71913   17.97666   -3.85529
       O   -15.37890   18.85134   -3.91473
      H1   -14.41643   18.78756   -4.14437
       H   -19.04361   18.15353   -8.68638
       O   -19.39570   17.38028   -8.21597
      H1   -18.86405   17.34423   -7.37480
       H   -15.06608   17.81966   -7.04283
       O   -14.37867   17.08193   -7.16775
      H1   -14.14417   17.15601   -8.10678
       H   -12.57467   13.60541   -0.66653
       O   -13.53514   13.65763   -0.81081
      H1   -13.80921   14.58655   -0.71370
       H   -14.38237    9.51296   -7.27282
       O   -14.81737   10.28559   -7.56349
      H1   -14.86248   10.79698   -6.70022
       H   -12.31857   18.13819  -11.19294
       O   -12.33705   18.79245  -11.91710
      H1   -13.20054   19.15571  -12.02640
       H    -8.52176   13.06190  -11.78431
       O    -9.05322   12.90426  -11.01816
      H1    -9.54842   13.76300  -11.03779
       H   -15.14987   18.64125  -12.45990
       O   -15.00534   19.48367  -12.02789
      H1   -15.49129   19.48305  -11.22084
       H   -10.74699   10.94937   -6.21212
       O   -11.58225   10.91034   -5.71244
      H1   -11.70150    9.97556   -6.00017
       H   -10.44699   14.50706   -3.48702
       O    -9.75046   13.90740   -3.08916
      H1    -9.26906   13.59936   -3.86658
       H   -15.55364   10.21566  -10.95482
       O   -15.32309   11.15778  -10.97536
      H1   -16.03897   11.64377  -11.36955
       H   -16.04850   13.46811   -7.86251
       O   -16.44963   12.77486   -8.43098
      H1   -15.70759   12.07808   -8.50625

