126
frame 7 | Written by MDAnalysis XYZWriter (release 2.4.3)
       H    -3.91815   13.89110  -11.16148
       O    -4.26448   13.02800  -10.93636
      H1    -4.27188   12.48382  -11.70987
       H     3.38550   12.31990   -6.65490
       O     3.93761   13.01212   -6.97980
      H1     3.49251   13.89289   -6.85976
       H    -0.48519    8.98383   -4.88695
       O    -0.76746    8.72641   -5.78435
      H1    -0.62553    9.44525   -6.38807
       H     1.05312   12.69761  -13.15916
       O     1.39219   12.52908  -12.28411
      H1     0.59562   12.18157  -11.81323
       H    -4.27573    7.37736   -4.90206
       O    -4.49252    8.23645   -4.56116
      H1    -5.45368    8.38474   -4.78590
       H    -4.08391    9.48425   -3.29966
       O    -3.77052   10.09713   -2.63047
      H1    -4.37152   10.04602   -1.88250
       H    -3.44760    7.65181  -10.75568
       O    -4.03827    6.98291  -11.07944
      H1    -4.33451    7.27676  -11.92729
       H     4.35387    6.72355   -5.17037
       O     3.55174    7.31815   -5.27869
      H1     3.35280    7.28959   -6.22168
       H    -0.11756   16.41063   -5.63581
       O    -0.67133   16.79596   -4.97150
      H1    -0.70155   17.75457   -5.15385
       H    -1.78651   13.49010  -13.80109
       O    -1.56551   13.87423  -12.93833
      H1    -0.68343   14.37928  -13.04164
       H     1.25920    9.72057  -10.00045
       O     0.62815    9.30063  -10.63529
      H1    -0.24629    9.64531  -10.38940
       H    -1.12174   10.10485  -14.16184
       O    -0.91231   10.83483  -14.74967
      H1    -1.73885   10.96092  -15.36085
       H     1.58430   14.07640   -6.24392
       O     1.47753   14.45045   -7.12849
      H1     1.64430   13.70997   -7.73508
       H    -6.21648   10.85004   -8.97546
       O    -5.50028   11.38942   -8.43667
      H1    -5.44037   12.21994   -8.92229
       H    -0.66890    6.01104   -7.94398
       O    -0.63606    6.96792   -8.09336
      H1    -0.83969    7.32780   -7.20753
       H     0.80381    7.43515  -10.77409
       O     0.84203    6.56026  -11.20723
      H1     1.05274    6.77722  -12.12043
       H     2.29997   10.48903   -5.01431
       O     2.08401   11.10777   -5.72368
      H1     1.16519   11.31688   -5.56422
       H    -1.29834   11.72284   -1.07221
       O    -1.43393   11.67839   -1.96997
      H1    -2.20663   11.09366   -2.13136
       H    -3.68293   11.02608  -13.82022
       O    -3.47993   11.97008  -13.70148
      H1    -4.33340   12.42040  -13.85574
       H    -1.56122   11.64073  -10.50051
       O    -1.05812   11.62049  -11.35613
      H1    -1.43282   12.23591  -11.95647
       H    -3.15642   16.08283   -5.53009
       O    -3.90589   16.69009   -5.49958
      H1    -4.44427   16.54885   -4.71484
       H    -4.28603   11.77354   -3.01795
       O    -4.61094   12.69033   -3.05062
      H1    -5.56450   12.56758   -3.40709
       H    -1.15371   10.83397   -8.11689
       O    -0.38197   10.64815   -7.55026
      H1     0.31653   10.47225   -8.19791
       H    -1.43267    8.05757   -9.05754
       O    -1.99523    8.64148   -9.67881
      H1    -2.71245    9.04745   -9.14766
       H    -4.30953   10.15063   -7.46546
       O    -4.04533    9.16417   -7.35719
      H1    -3.70381    9.07434   -6.48172
       H     1.72634   13.17754  -10.61371
       O     1.92071   13.40313   -9.69785
      H1     1.97405   14.38078   -9.75399
       H     5.10099    8.76973   -9.34345
       O     4.91519    8.37895   -8.45752
      H1     4.17893    7.74968   -8.50912
       H    -5.48470    7.33405   -9.69747
       O    -5.95947    7.71658   -8.93379
      H1    -5.25651    8.21493   -8.43036
       H    -6.12908   12.32414   -7.18228
       O    -6.65604   12.95766   -6.72711
      H1    -7.54776   13.01003   -7.12443
       H     2.21724   14.46359   -3.79106
       O     2.11782   13.87158   -4.55948
      H1     2.24489   12.96582   -4.28974
       H    -3.14715    8.79202  -13.56981
       O    -3.92069    9.13440  -14.01627
      H1    -4.38088    8.33597  -14.31814
       H    -1.94167   13.88127   -6.30404
       O    -1.58447   14.00134   -7.19406
      H1    -0.62664   13.89396   -7.18184
       H    -2.42229   14.91446  -11.82709
       O    -3.21864   15.37345  -11.40433
      H1    -2.96492   15.83038  -10.59592
       H    -1.07713    7.52902  -12.78269
       O    -1.38914    8.45823  -12.96821
      H1    -1.21308    8.90297  -12.11446
       H    -2.73373   13.49601   -3.85306
       O    -2.10227   14.02388   -4.43548
      H1    -1.58251   14.50295   -3.81254
       H     2.69118   10.65253  -13.07871
       O     2.63069    9.78202  -12.76192
      H1     1.78575    9.85889  -12.22170
       H     2.85724   10.55965   -8.16620
       O     2.24653   10.83385   -8.88883
      H1     2.36801   11.79651   -8.87664
       H    -3.12889   12.55597   -9.59200
       O    -2.52693   12.05159   -9.02431
      H1    -2.32948   12.75456   -8.35854
       H    -2.66896   15.37839   -8.29340
       O    -2.89913   16.15513   -8.81017
      H1    -2.56991   16.90388   -8.30319
       H     2.89523    6.24752   -7.85000
       O     2.43735    7.13137   -7.79860
      H1     1.53234    6.89949   -8.02172
       H     0.86407    9.60017   -3.18601
       O    -0.07788    9.65632   -3.34312
      H1    -0.30224   10.46957   -2.78696
       H     0.83356   15.86860   -7.61968
       O     0.46773   16.74180   -7.71004
      H1    -0.05950   16.73721   -8.52434

