126
frame 9 | Written by MDAnalysis XYZWriter (release 2.4.3)
       H    -6.92015   -8.78699  -17.81610
       O    -7.25441   -9.51344  -18.35967
      H1    -7.10010   -9.24227  -19.25970
       H    -6.51814   -5.73339  -19.93137
       O    -6.60587   -6.42304  -19.27506
      H1    -5.67254   -6.75630  -19.10135
       H    -3.36297   -3.08256  -17.65655
       O    -3.10002   -3.36127  -16.77157
      H1    -3.00094   -2.54104  -16.30581
       H    -2.12343  -10.50751  -13.15301
       O    -1.67081   -9.65796  -13.25807
      H1    -1.62152   -9.48851  -14.22809
       H    -2.31784  -11.02740  -17.54523
       O    -1.67769  -11.73447  -17.72898
      H1    -2.09936  -12.18594  -18.47585
       H     3.47430  -11.52200  -15.24364
       O     3.03193  -11.61645  -16.11294
      H1     2.27922  -12.20604  -16.14588
       H     4.41357   -5.41703  -18.15322
       O     5.08493   -5.95146  -18.55440
      H1     4.74560   -6.87561  -18.71560
       H    -6.28402  -10.84307  -16.62692
       O    -5.63245  -10.95338  -15.90753
      H1    -6.07548  -10.69375  -15.11997
       H     5.59305   -6.22401  -16.88473
       O     5.46764   -6.69752  -16.01483
      H1     5.37034   -5.99971  -15.31167
       H     2.77063   -9.89415  -16.45331
       O     3.17823   -8.99517  -16.45923
      H1     3.84776   -9.15910  -15.80498
       H    -6.18494   -3.40797  -16.73069
       O    -6.54100   -3.02849  -17.52580
      H1    -5.86757   -3.25597  -18.13338
       H     1.01564   -0.95734  -14.98279
       O     1.02935   -1.01177  -15.92054
      H1     1.58730   -0.29735  -16.21311
       H    -1.94113   -6.60088  -16.60441
       O    -2.10319   -5.90697  -17.28441
      H1    -2.28429   -5.03709  -16.87528
       H    -4.56782  -13.07469  -16.71022
       O    -4.12869  -13.34522  -15.87710
      H1    -3.74361  -12.54734  -15.59305
       H     0.76245  -13.65096  -17.00634
       O     0.59678  -12.75597  -16.60715
      H1    -0.23241  -12.48606  -17.04894
       H    -5.40456   -7.69827  -16.26159
       O    -6.34961   -7.53968  -16.23332
      H1    -6.40245   -6.68424  -16.72387
       H    -3.64414  -10.58783  -20.26707
       O    -3.84303  -11.37044  -19.79264
      H1    -4.40277  -11.01759  -19.10742
       H    -4.32731  -10.05452  -16.70864
       O    -3.53545   -9.78316  -17.23894
      H1    -3.70123   -8.83698  -17.54999
       H     6.99546   -9.01000  -14.61320
       O     7.03027   -8.82775  -15.53386
      H1     6.46369   -8.03225  -15.58621
       H     4.21773   -9.02022  -18.04183
       O     4.64246   -8.68864  -18.86294
      H1     5.58832   -8.94708  -18.69825
       H     3.62282  -12.79810  -18.71779
       O     3.81899  -13.35230  -17.98440
      H1     3.75377  -12.71262  -17.22707
       H    -0.09737   -0.73827  -19.40960
       O     0.64421   -1.06071  -18.88347
      H1     0.34377   -1.90107  -18.37654
       H     3.95428  -10.12359  -12.91372
       O     3.68414  -10.84316  -13.46791
      H1     2.73616  -10.73892  -13.33216
       H    -0.45441   -7.47211  -19.71995
       O    -0.88645   -6.63802  -19.56343
      H1    -0.99426   -6.43792  -18.60041
       H    -0.11226   -2.64556  -16.57936
       O     0.01536   -3.50634  -16.89768
      H1    -0.82511   -3.70476  -17.34690
       H    -3.69370   -6.92662  -13.24074
       O    -4.54567   -7.05622  -12.80847
      H1    -5.27616   -6.59684  -13.33936
       H     0.34905   -9.42985  -19.12916
       O    -0.22091   -9.48233  -18.36779
      H1    -0.53827  -10.45026  -18.35421
       H     3.44678   -8.06280  -13.28796
       O     3.88302   -8.30627  -12.44042
      H1     3.21747   -7.98329  -11.89304
       H     2.37994   -4.40307  -18.74764
       O     2.76090   -4.47102  -17.88292
      H1     2.06020   -4.94674  -17.44705
       H     6.31293  -10.97664  -18.66981
       O     6.07771  -11.83476  -19.12336
      H1     5.57834  -12.33012  -18.49709
       H    -5.26536   -3.29351  -14.56916
       O    -5.43790   -3.96569  -15.36979
      H1    -4.64054   -3.89780  -15.90323
       H    -3.50694   -6.69914  -18.15647
       O    -4.19650   -7.36789  -18.42613
      H1    -3.78688   -7.79785  -19.21188
       H    -6.18820   -5.09852  -14.40966
       O    -6.70793   -5.75216  -13.84689
      H1    -6.82686   -6.45240  -14.55473
       H     2.39157   -7.96937  -15.22258
       O     2.06774   -7.62104  -14.36135
      H1     2.27133   -6.66181  -14.29460
       H     2.61048   -4.05512  -14.89269
       O     1.82444   -4.62139  -14.84301
      H1     1.28979   -4.05835  -15.43594
       H     0.15000  -12.99825  -14.84152
       O     0.01781  -13.16233  -13.89479
      H1    -0.94659  -13.03413  -13.83132
       H     3.55711   -2.12270  -15.01767
       O     3.92430   -2.94147  -14.58361
      H1     3.60058   -2.90675  -13.65948
       H    -7.02338  -12.95810  -18.35131
       O    -7.54237  -12.23184  -18.03756
      H1    -7.54389  -11.49725  -18.66742
       H    -1.44822   -7.02791  -11.21528
       O    -1.15634   -7.20561  -12.11996
      H1    -1.43925   -8.09156  -12.46092
       H    -0.65970   -5.55844  -13.33069
       O    -0.46499   -4.62392  -13.15536
      H1     0.39101   -4.37963  -13.44044
       H    -0.72591   -8.23528  -16.21214
       O    -1.16087   -7.77193  -15.49335
      H1    -0.45969   -7.44059  -14.90164
       H     0.58813  -11.78574  -12.99432
       O     0.90352  -10.86767  -12.64005
      H1     0.18432  -10.32714  -12.97810

