126
frame 3 | Written by MDAnalysis XYZWriter (release 2.4.3)
       H    -4.38811    4.90455    9.84946
       O    -4.46554    4.64600   10.75189
      H1    -4.80606    3.74668   10.76555
       H    -7.12910    0.62957   11.79823
       O    -6.56815    0.00409   11.37448
      H1    -6.41189   -0.62655   12.10799
       H    -2.54310   -2.31812   11.82249
       O    -3.39330   -1.83106   11.70078
      H1    -3.27309   -0.92690   11.47147
       H    -8.04375   -4.66964   18.11989
       O    -8.02632   -4.37880   19.03229
      H1    -7.33357   -4.96337   19.42737
       H   -10.66404   -2.88920   15.99691
       O   -10.46858   -3.18630   16.88008
      H1   -10.87955   -4.05192   16.78354
       H    -0.88814    3.65595   12.85926
       O    -1.53895    3.56897   13.58065
      H1    -1.02445    2.96153   14.13899
       H    -0.60651   -2.68498   17.46311
       O     0.04802   -3.21777   17.02482
      H1    -0.35622   -4.04962   16.78855
       H    -4.58515    4.05707   16.73915
       O    -3.63934    3.82736   16.70390
      H1    -3.22637    4.36577   16.00947
       H    -8.01663   -3.67526   13.32384
       O    -7.29321   -4.00075   13.97484
      H1    -6.99278   -4.82474   13.44835
       H    -0.70755   -0.77831   13.17020
       O    -0.93416   -0.50844   12.24113
      H1    -1.66363    0.13128   12.45850
       H    -8.20959    2.33668   10.26920
       O    -8.44022    2.31295   11.21317
      H1    -9.19506    1.65269   11.35029
       H    -7.86407    2.68015   14.98576
       O    -6.95147    3.13674   15.12150
      H1    -7.00992    3.79721   14.33706
       H    -9.25261   -4.48343   12.47696
       O    -9.23460   -3.58222   12.08871
      H1    -8.50601   -3.56305   11.45154
       H    -0.35536    1.16788   15.44651
       O    -0.54675    2.09993   15.73901
      H1    -0.67197    1.98422   16.64753
       H    -0.77951   -4.37739   12.74380
       O    -1.75143   -4.10301   12.80810
      H1    -1.77747   -3.83423   13.72494
       H    -3.65363    5.61421   19.27956
       O    -3.83709    4.69115   19.40766
      H1    -3.83292    4.39525   18.46829
       H   -10.65689   -0.68019   19.23190
       O   -11.32254   -0.03549   19.48897
      H1   -12.05936   -0.25193   18.88913
       H     1.12352   -1.09735   14.47354
       O     0.26699   -0.89431   14.87645
      H1     0.03026   -1.60868   15.49897
       H    -8.32207   -0.34045   18.28084
       O    -7.87916    0.07500   17.54720
      H1    -7.08084   -0.39512   17.31028
       H    -9.94100    1.81877   18.99988
       O    -9.86401    2.45947   18.28406
      H1    -8.95488    2.75560   18.36448
       H    -4.87097   -1.93961   12.84393
       O    -5.75010   -1.85106   13.21156
      H1    -6.15492   -2.73629   13.32185
       H    -6.69144   -2.69391    9.64203
       O    -6.68358   -3.45391   10.22512
      H1    -6.04466   -3.19107   10.86358
       H    -0.84198   -0.22840   18.47560
       O    -1.01827   -1.11389   18.82986
      H1    -0.88853   -1.06684   19.80477
       H    -5.44231    2.05076   14.84653
       O    -4.61124    1.63374   15.19823
      H1    -4.30508    2.29883   15.80506
       H    -2.07722    4.97202   14.31652
       O    -2.39824    5.73572   14.87339
      H1    -1.87872    5.97590   15.62084
       H    -1.74268    2.10338   18.75049
       O    -0.92041    1.65763   18.44250
      H1    -0.20873    2.14413   18.87105
       H    -6.49771    5.98898   13.43549
       O    -6.54162    5.13310   12.96670
      H1    -5.87440    5.23817   12.28526
       H    -3.23480   -5.01039   15.65642
       O    -2.62496   -4.24898   15.69621
      H1    -2.98219   -3.71205   16.43021
       H    -9.09534   -1.55757   15.68793
       O    -9.50454   -1.24103   14.91832
      H1    -9.57273   -0.30845   14.92579
       H    -1.30493   -5.50566   16.23153
       O    -0.52604   -5.94688   16.52497
      H1    -0.48899   -6.61181   15.83446
       H    -7.02904    1.48470   20.44268
       O    -6.91061    1.69296   19.46120
      H1    -6.95263    0.86248   18.96927
       H    -0.01213    1.12134   12.52969
       O     0.34406    1.92390   12.04098
      H1     0.21436    1.74486   11.10122
       H    -8.03253   -4.83965   15.57927
       O    -7.86621   -5.41501   16.28759
      H1    -7.22054   -6.10991   16.02954
       H   -10.05087    1.97981   15.04607
       O    -9.19715    1.54364   15.19684
      H1    -9.18527    1.22884   16.14467
       H    -5.64093   -1.73653   15.74394
       O    -5.56008   -1.00621   16.36213
      H1    -5.16630   -0.27544   15.88885
       H   -11.16306    0.95436   11.53141
       O   -10.46970    0.69840   12.13187
      H1   -10.77659    0.85154   13.01819
       H    -2.59723   -1.93229   18.28476
       O    -3.47046   -2.37035   18.12449
      H1    -3.90517   -1.73913   17.56144
       H    -2.51603    2.05502   13.23771
       O    -2.85801    1.27459   12.70711
      H1    -3.36886    0.81308   13.31539
       H    -7.27880   -0.73781    8.40756
       O    -6.51171   -0.98280    8.96832
      H1    -6.59742   -0.37027    9.77553
       H    -6.28818    3.44272   18.03389
       O    -6.18037    4.22202   17.43999
      H1    -6.50865    3.89379   16.59810
       H    -3.72463    1.91107   11.18310
       O    -4.61924    1.94495   10.64245
      H1    -5.08715    1.14836   10.96364
       H    -5.45640   -6.71762   16.36613
       O    -4.60406   -6.22194   16.35815
      H1    -4.23718   -6.28804   17.21540

