126
frame 6 | Written by MDAnalysis XYZWriter (release 2.4.3)
       H    -8.02429   11.55576  -13.26719
       O    -7.94740   12.45157  -13.60179
      H1    -8.41263   12.91620  -12.91485
       H    -3.97080   14.33227  -11.03071
       O    -4.57063   13.60440  -11.01412
      H1    -4.36242   12.96366  -11.66655
       H    -4.00293   14.92009  -15.16210
       O    -3.02480   15.04791  -15.22361
      H1    -2.88370   15.68789  -15.96427
       H    -2.62262   16.47438  -12.71257
       O    -2.81754   17.01727  -13.48674
      H1    -2.88740   16.38304  -14.22511
       H    -3.44829   19.27255  -14.39793
       O    -4.27519   19.79796  -14.37666
      H1    -4.84607   19.52442  -13.66756
       H    -9.72485   17.21852   -9.60352
       O   -10.09213   17.31892  -10.50787
      H1    -9.31399   17.68330  -10.96119
       H    -1.00128   16.07526  -18.27309
       O    -0.66204   16.40520  -17.43770
      H1    -0.34490   15.65946  -16.90911
       H    -3.99103   17.33727  -17.84725
       O    -4.32434   16.65274  -17.21644
      H1    -4.71611   16.00841  -17.78888
       H    -6.26676   11.99250  -16.63127
       O    -5.84842   11.34585  -16.04527
      H1    -6.40586   10.55682  -16.18794
       H    -0.79575   18.37960  -15.07237
       O    -1.47375   18.88248  -15.51574
      H1    -1.56381   18.27712  -16.29309
       H    -1.69646   14.00479  -13.33018
       O    -1.07520   13.85056  -12.60994
      H1    -0.30663   14.25274  -12.91708
       H   -11.95364   14.83367  -14.48467
       O   -11.72193   13.99981  -14.09256
      H1   -11.12614   13.36858  -14.59683
       H   -15.35089   19.78557  -16.45172
       O   -14.62724   19.25599  -15.98883
      H1   -14.78187   18.33436  -16.15761
       H    -6.05524   14.68577  -11.05186
       O    -6.68812   15.45125  -11.16765
      H1    -6.18706   16.26404  -10.95770
       H    -8.61782   18.40575  -12.87464
       O    -8.00032   18.22634  -12.11951
      H1    -7.43424   17.44062  -12.27821
       H    -9.33093   18.96831   -9.44996
       O    -8.67487   19.58512   -9.21380
      H1    -7.84755   19.14634   -8.98159
       H   -12.90466   12.93905  -14.04021
       O   -13.76376   12.48371  -13.92338
      H1   -14.18173   12.40809  -14.78066
       H    -4.85724   10.60940  -12.84119
       O    -4.45697   11.41118  -13.14988
      H1    -4.96387   11.61428  -13.93127
       H    -4.71492   17.13978  -14.09450
       O    -5.60416   16.98476  -13.78209
      H1    -6.25386   17.22841  -14.48664
       H    -7.58582   18.73277  -16.43421
       O    -7.52570   18.02129  -15.74829
      H1    -8.30779   18.05421  -15.16948
       H   -14.43700   15.61874  -12.74301
       O   -14.16491   15.56806  -11.77942
      H1   -13.31023   15.14276  -11.87914
       H   -12.44099   17.57272  -17.10044
       O   -11.97655   16.77124  -17.02963
      H1   -12.33433   16.08994  -17.58935
       H    -5.88002   17.18107   -8.83249
       O    -6.21220   18.04685   -9.14963
      H1    -5.56385   18.69679   -8.97123
       H   -12.26107   13.70432  -18.09470
       O   -13.06378   14.20929  -17.99574
      H1   -13.51511   14.10758  -18.80798
       H    -7.36576   16.27314  -16.19377
       O    -7.70489   15.30832  -16.16873
      H1    -7.26850   14.80857  -15.41713
       H   -10.85447   12.38039  -16.92697
       O   -11.09923   12.48234  -17.83758
      H1   -11.70139   11.74698  -18.05940
       H    -7.63609   13.32724  -18.37250
       O    -6.72393   13.62457  -18.07481
      H1    -6.91555   14.25155  -17.33411
       H   -10.65450   17.45635  -18.46823
       O   -10.19896   17.35787  -19.32559
      H1   -10.31356   18.12570  -19.91839
       H    -2.78632   19.27657  -19.09815
       O    -3.29683   18.40844  -19.13502
      H1    -2.64763   17.80731  -19.54046
       H    -0.65877   13.13742  -15.46543
       O    -1.29262   13.30007  -16.15249
      H1    -1.95589   13.91192  -15.79588
       H    -1.58033   18.51314  -13.04716
       O    -0.78351   19.00237  -12.68157
      H1    -0.92315   19.88471  -13.03596
       H    -6.45698   13.53788  -13.95035
       O    -5.92823   14.31891  -14.19623
      H1    -6.06596   14.98288  -13.50658
       H    -0.02139   17.79146  -18.15696
       O     0.14687   18.64912  -18.57344
      H1     0.36583   19.20075  -17.77679
       H   -12.35196   16.86492  -15.18980
       O   -12.21094   16.81801  -14.24618
      H1   -12.95975   17.13957  -13.75352
       H   -10.78192   17.64817  -14.27164
       O   -10.03016   18.28694  -14.22652
      H1   -10.47448   19.07006  -13.91593
       H   -11.47737   20.01547  -10.69508
       O   -12.03768   19.37675  -10.17498
      H1   -11.55149   18.53175  -10.36790
       H    -1.93830   14.86544  -11.11155
       O    -2.55566   15.59731  -10.99512
      H1    -2.50822   15.96047  -10.06160
       H   -11.41935   14.77448  -12.58189
       O   -11.46061   14.89635  -11.60987
      H1   -11.48649   15.87381  -11.41470
       H   -15.89463   16.17364  -14.93662
       O   -15.16121   16.63228  -14.52292
      H1   -15.53749   17.24869  -13.87619
       H    -9.33350   11.95879  -14.83874
       O   -10.25174   11.94605  -15.15834
      H1   -10.69367   11.08261  -15.11730
       H    -9.75410   14.17619  -11.61081
       O    -8.87955   13.70891  -11.50737
      H1    -8.22234   14.33164  -11.28235
       H   -10.19665   19.04686  -15.83861
       O   -10.10353   19.58204  -16.65262
      H1    -9.46046   19.09283  -17.16120

