126
frame 10 | Written by MDAnalysis XYZWriter (release 2.4.3)
       H    -3.86023   -3.02480  -11.79592
       O    -3.16625   -3.49748  -11.31500
      H1    -2.34701   -3.04433  -11.61429
       H    -5.84650   -9.18513  -18.07591
       O    -6.40274   -9.75727  -18.56067
      H1    -6.47479   -9.34160  -19.41404
       H    -6.76673   -4.35386  -16.88021
       O    -7.41837   -4.92359  -16.50701
      H1    -8.08014   -4.37303  -16.09809
       H    -5.17765   -6.24384  -18.89728
       O    -5.59935   -6.37215  -18.05393
      H1    -4.90325   -6.93915  -17.61549
       H    -2.41617   -3.51995  -16.63420
       O    -1.85441   -4.11992  -16.22120
      H1    -1.54290   -3.81007  -15.34383
       H    -1.95856  -10.12669  -13.14038
       O    -1.37844   -9.49396  -13.60250
      H1    -1.56452   -9.62221  -14.52511
       H    -2.29175  -13.23285  -18.37790
       O    -2.10797  -12.55404  -19.07144
      H1    -1.71020  -13.03755  -19.84247
       H    -7.25607   -4.70150  -18.63455
       O    -7.82939   -4.44678  -19.39850
      H1    -7.62090   -5.06443  -20.09350
       H     3.98997  -11.50581  -17.11782
       O     3.22919  -11.30613  -17.68947
      H1     2.45778  -11.75519  -17.31118
       H     5.87231   -6.21981  -16.95481
       O     5.02482   -6.40820  -16.57000
      H1     5.08126   -6.12558  -15.63769
       H    -2.30174   -0.95896  -15.13668
       O    -2.97789   -1.68183  -15.04870
      H1    -3.78846   -1.16389  -15.10288
       H     3.69472   -9.52125  -16.97340
       O     3.55381   -8.64271  -17.34856
      H1     4.01355   -7.93338  -16.84105
       H    -5.06162   -3.60838  -16.30168
       O    -5.41995   -3.32969  -17.21321
      H1    -4.69083   -3.20399  -17.81735
       H    -2.15634    0.97481  -18.87248
       O    -2.36214    0.04480  -18.96838
      H1    -2.56902   -0.19955  -19.88227
       H    -1.49883   -6.87067  -17.20464
       O    -1.85462   -6.34678  -17.90229
      H1    -2.24599   -5.62924  -17.43854
       H    -0.04496  -12.60031  -17.64392
       O     0.59990  -11.99626  -17.21357
      H1     0.41907  -11.14759  -17.67132
       H    -2.80468   -2.04127  -18.77349
       O    -3.11928   -2.94971  -18.54985
      H1    -2.74911   -3.52178  -19.24926
       H    -7.09932   -6.67390  -16.53744
       O    -7.17304   -7.48486  -16.00063
      H1    -7.99486   -7.32200  -15.53380
       H    -3.79550  -12.02606  -19.20969
       O    -4.74199  -11.93697  -19.29355
      H1    -5.11916  -11.05525  -19.27979
       H    -4.29615  -10.63123  -15.32444
       O    -3.50563  -11.03482  -15.61994
      H1    -3.43684  -10.65896  -16.48774
       H    -5.97592   -0.99284  -17.36738
       O    -5.67353   -0.12005  -17.04964
      H1    -6.08423   -0.08168  -16.14179
       H     2.00865   -8.91441  -19.63498
       O     1.96872   -9.88651  -19.63224
      H1     2.46342  -10.19715  -18.90235
       H    -0.30839   -0.15372  -18.60692
       O     0.61396   -0.44974  -18.45912
      H1     0.50764   -1.29902  -18.09037
       H     0.62129   -5.90009  -19.92684
       O     0.21518   -5.29560  -19.28133
      H1    -0.55880   -5.79413  -19.01682
       H     0.18912    0.25779  -16.08134
       O    -0.74873    0.22138  -15.86190
      H1    -0.75865    0.74386  -15.07748
       H     0.32548   -1.69954  -16.06560
       O     0.32905   -2.55717  -16.58271
      H1    -0.51828   -2.92762  -16.44168
       H    -3.65393   -5.05523  -10.93362
       O    -3.92285   -5.93559  -10.56169
      H1    -3.71731   -6.49420  -11.35525
       H    -2.80447   -8.37550  -13.24193
       O    -3.56062   -8.24735  -12.62486
      H1    -4.21515   -7.81765  -13.23812
       H     0.36948  -10.01703  -19.09712
       O    -0.45809   -9.86488  -18.68425
      H1    -1.08374  -10.52671  -19.01405
       H     2.55847   -7.69519  -14.63661
       O     3.23637   -8.10670  -13.99953
      H1     3.09773   -7.59862  -13.20086
       H     4.47119   -4.03446  -18.70821
       O     5.19004   -4.01793  -18.04076
      H1     4.90861   -4.56466  -17.27603
       H    -0.65843   -2.35916  -11.05169
       O    -0.87401   -2.32616  -11.98230
      H1    -0.44692   -3.12854  -12.28364
       H    -4.88413   -3.83585  -13.96069
       O    -4.63926   -4.30452  -14.73423
      H1    -3.73906   -3.94615  -14.95736
       H    -3.26936   -8.58069  -16.96648
       O    -3.96820   -8.95901  -17.48978
      H1    -3.94510   -8.53928  -18.36029
       H    -4.99159   -5.94546  -14.40499
       O    -5.42139   -6.83114  -14.13374
      H1    -6.05497   -7.00702  -14.87528
       H     2.09380   -7.93838  -16.53346
       O     1.36731   -7.54476  -16.03807
      H1     1.23456   -6.66379  -16.44298
       H     2.89415   -4.35406  -14.94254
       O     2.29863   -4.77478  -15.59263
      H1     1.86534   -4.04183  -16.07866
       H    -0.34668  -12.13260  -15.62528
       O    -0.77226  -12.35975  -14.77485
      H1    -1.70251  -12.29216  -15.03890
       H    -0.51218   -6.84609  -11.46501
       O    -0.12099   -6.98645  -12.31947
      H1    -0.51031   -7.83502  -12.64561
       H     0.15265   -5.33489  -13.22709
       O     0.33235   -4.40369  -13.53825
      H1     0.76871   -4.66860  -14.35605
       H    -0.90564   -9.27527  -17.15432
       O    -1.10668   -8.82759  -16.34213
      H1    -0.29141   -8.33457  -16.02211
       H     0.42321  -11.79039  -13.28469
       O     0.83508  -11.02931  -12.82205
      H1     0.12636  -10.36970  -12.91014

