126
frame 5 | Written by MDAnalysis XYZWriter (release 2.4.3)
       H    18.75110  -10.79765   13.34579
       O    19.34748  -11.39795   12.89386
      H1    19.83560  -11.91597   13.61997
       H    16.23001   -1.11227   13.43347
       O    16.43777   -1.70678   14.16416
      H1    16.08638   -1.24002   14.92043
       H    11.98825   -6.16027   10.26801
       O    11.01167   -6.11326   10.20834
      H1    10.68622   -5.30879   10.66910
       H    19.64446    0.52489   10.65751
       O    18.81996    0.57083   11.20155
      H1    18.78013    1.46333   11.54840
       H    18.37203   -4.70906   11.33933
       O    18.34042   -3.81708   10.90316
      H1    18.93968   -3.31168   11.46173
       H    16.52380    0.84939   15.87205
       O    15.91840    0.15060   16.19827
      H1    16.11095    0.04186   17.15654
       H    14.19502   -6.44383   11.16848
       O    13.67694   -6.66527   10.37425
      H1    14.23917   -6.26405    9.69952
       H    18.42080    2.59048   14.03686
       O    18.83946    2.84288   13.16752
      H1    19.75025    3.11363   13.43039
       H    11.71365   -3.58528    6.61820
       O    12.37866   -3.73765    7.29734
      H1    13.11917   -3.73596    6.75634
       H    18.90520   -4.15612    6.24890
       O    18.42581   -3.44523    6.62929
      H1    17.71427   -3.74498    7.22564
       H    14.65149   -0.67936    8.55112
       O    15.10383   -1.25370    9.25636
      H1    15.56303   -1.99008    8.75766
       H    13.04650   -2.54676   12.89864
       O    12.66376   -1.70523   13.11086
      H1    12.33128   -1.40999   12.22275
       H    13.75092   -3.81788    4.34280
       O    13.92686   -3.06401    4.90102
      H1    14.92547   -3.04339    4.94196
       H    14.52862   -8.50536    9.69801
       O    14.94543   -9.27836    9.29604
      H1    14.22083   -9.73673    8.85728
       H    18.81683    2.18292    9.90381
       O    19.21704    2.92035    9.44690
      H1    18.69751    3.04225    8.64987
       H    14.63021   -8.82365   14.78284
       O    13.98562   -8.92333   14.05218
      H1    13.42658   -9.64010   14.37455
       H    16.57562   -1.39890    5.17313
       O    16.67032   -2.34516    4.96475
      H1    17.24102   -2.70424    5.69193
       H    13.69100    0.91676    7.85311
       O    13.98547    0.11501    7.35173
      H1    14.68942    0.44996    6.77101
       H    17.63271    0.87521    8.07823
       O    16.95485    0.83040    8.79516
      H1    16.44113    0.02281    8.78886
       H    15.76468   -4.48254    8.54422
       O    16.25435   -3.68308    8.70876
      H1    16.84248   -3.84575    9.43983
       H    15.43322   -0.34707   11.38118
       O    16.10918   -0.00903   12.05127
      H1    16.94992   -0.17064   11.59538
       H    18.86905    0.23114    6.71983
       O    18.61948    1.14647    6.56582
      H1    19.48962    1.57986    6.53235
       H    19.75745   -3.45381    3.85414
       O    18.83902   -3.53209    3.46358
      H1    18.18121   -3.03026    3.97657
       H    13.60809   -5.40507    7.81064
       O    14.46367   -5.73736    8.05391
      H1    14.67059   -6.34283    7.33627
       H    18.90429   -4.17299   14.84688
       O    17.96435   -4.00772   15.01096
      H1    17.82459   -3.11331   14.64248
       H    15.27831   -7.23955   13.03275
       O    15.41110   -6.54849   12.36475
      H1    15.02447   -5.74720   12.75264
       H    16.27900    2.45978   10.57096
       O    16.35684    2.57538   11.50650
      H1    16.26184    1.64531   11.85384
       H    14.40784   -9.88990   12.55838
       O    14.06234  -10.45836   11.86331
      H1    14.50475  -10.19622   11.03112
       H    11.99575   -0.42491   10.70862
       O    11.80236    0.48889   10.95451
      H1    11.07687    0.60734   11.56355
       H    19.41646   -8.43328    6.23753
       O    18.90962   -8.00991    6.90751
      H1    19.24415   -7.12001    6.86936
       H    17.08678    0.64704    5.89032
       O    16.30059    0.32707    5.48419
      H1    15.74802    1.11498    5.32633
       H    13.56008   -3.59540   16.25860
       O    13.82839   -4.50296   16.29029
      H1    14.78131   -4.50808   16.45600
       H    17.68186   -8.81409   13.65236
       O    17.13986   -9.59965   13.38477
      H1    17.13593   -9.78326   12.40683
       H    16.25152   -6.53495   16.40680
       O    16.49668   -5.66156   16.65770
      H1    17.15209   -5.39499   15.96628
       H    18.37632   -7.08731   11.06389
       O    18.24146   -6.33873   11.67572
      H1    17.27518   -6.40066   11.79594
       H    15.83756   -8.82168    7.89526
       O    16.14209   -8.43225    7.02551
      H1    17.13016   -8.18743    7.04584
       H    18.55622   -7.08229   13.43132
       O    18.45144   -7.41970   14.34007
      H1    19.00367   -6.78413   14.83064
       H    19.66549   -0.33075   14.96790
       O    19.20407   -1.13494   14.70572
      H1    18.27492   -0.91625   14.57486
       H    14.02831   -4.34408   14.47932
       O    14.30339   -4.10468   13.56515
      H1    15.01651   -3.45569   13.69050
       H    11.59198   -2.39180    9.79922
       O    12.40410   -1.89757   10.07189
      H1    13.17971   -1.97451    9.47446
       H    17.62337  -11.52869   10.42574
       O    17.31939  -10.57218   10.39403
      H1    16.44220  -10.53220    9.97381
       H    19.28966   -8.37347    8.87109
       O    19.25867   -8.41085    9.82245
      H1    18.66441   -9.12466    9.92320

