126
frame 6 | Written by MDAnalysis XYZWriter (release 2.4.3)
       H    -6.82795    5.44768   -6.95796
       O    -6.34907    4.62725   -6.89301
      H1    -6.90443    4.02356   -6.42505
       H   -11.03873    9.14874  -11.54664
       O   -10.29297    8.97508  -12.16645
      H1   -10.51524    8.04880  -12.36504
       H   -10.51911    7.00083   -3.98152
       O    -9.64642    7.01624   -4.25208
      H1    -9.20867    7.14712   -3.46787
       H    -7.00863    7.25724   -8.19030
       O    -7.67667    6.91341   -7.54659
      H1    -8.48503    6.50460   -7.92797
       H    -9.94197    5.21203   -7.30349
       O    -9.96739    5.59191   -8.19626
      H1    -9.66499    4.91284   -8.82102
       H    -7.01507    2.64048   -4.42631
       O    -6.49677    2.59727   -3.59774
      H1    -6.98143    1.83985   -3.13144
       H   -10.56924    4.15745   -5.03838
       O    -9.85276    4.52581   -5.57812
      H1    -9.72885    5.40662   -5.21817
       H    -6.68295    9.48777   -6.74736
       O    -7.04883    8.97474   -6.00050
      H1    -7.44800    8.20680   -6.43813
       H    -9.70664   10.56547   -9.00769
       O    -9.54636    9.60978   -8.91705
      H1    -9.70161    9.31917   -7.98187
       H    -8.15265    1.75955   -6.58834
       O    -7.93252    2.49034   -5.94475
      H1    -8.71553    3.03814   -5.81009
       H    -4.20209    7.36806   -5.52763
       O    -4.39600    8.32291   -5.47733
      H1    -5.34682    8.42835   -5.55196
       H    -4.74241    9.66144   -3.74298
       O    -4.68575   10.18688   -2.91343
      H1    -5.24446    9.64671   -2.30095
       H    -3.51401    6.33356  -10.49524
       O    -4.39357    6.00248  -10.83354
      H1    -4.62406    6.40436  -11.65429
       H    -4.70877    5.64229   -3.43111
       O    -5.01547    5.72365   -2.50256
      H1    -5.70469    5.12200   -2.39755
       H    -6.82212    1.33015   -8.43624
       O    -7.04614    0.55979   -7.91168
      H1    -6.46977    0.62134   -7.13736
       H   -11.52390   10.21432   -4.79570
       O   -12.30489    9.86363   -5.30282
      H1   -12.84181   10.66391   -5.33291
       H   -11.27332    9.93850   -9.51600
       O   -12.08542    9.63502   -9.92047
      H1   -12.38560   10.45789  -10.42761
       H   -10.59780    6.27437  -12.57506
       O   -10.36743    6.55687  -13.47126
      H1    -9.46855    6.18504  -13.62355
       H   -12.26105    5.62486  -10.37185
       O   -12.03215    5.40126  -11.29175
      H1   -12.89982    5.28301  -11.73962
       H    -7.63672    2.91488   -9.28354
       O    -6.66887    3.10580   -9.11579
      H1    -6.54505    3.76031   -8.37155
       H    -6.30966   10.49188   -8.57688
       O    -5.72742   10.83551   -7.84201
      H1    -4.94801   11.31285   -8.28055
       H   -13.16783    6.64407   -5.70893
       O   -13.64798    6.40029   -6.50403
      H1   -13.23770    6.71108   -7.33923
       H    -7.35714   10.12075  -11.86930
       O    -7.84143    9.92802  -12.64936
      H1    -8.72056    9.48720  -12.38874
       H   -11.05971    3.59624  -11.73541
       O   -10.29889    3.09538  -12.08002
      H1    -9.52077    3.69635  -12.09221
       H    -9.98674    2.74167  -10.12269
       O    -9.42459    2.62274   -9.33463
      H1    -9.91981    1.88382   -8.88918
       H   -12.31705    7.84996   -9.44476
       O   -12.40134    7.08185   -8.86701
      H1   -11.51592    6.79890   -8.64749
       H    -4.64148    4.94447   -5.81662
       O    -4.16724    5.47946   -5.12002
      H1    -3.45529    4.84596   -4.89934
       H    -1.81521    6.97310   -9.14047
       O    -2.50676    7.48375   -9.53435
      H1    -2.41508    8.26990   -9.06243
       H    -2.17332   10.38852   -7.44056
       O    -2.50640    9.49170   -7.21487
      H1    -3.28107    9.58066   -6.70623
       H    -9.46746   12.80949   -9.86968
       O    -9.61449   12.37325   -9.03194
      H1   -10.06172   13.08634   -8.54853
       H    -7.58271    4.75010   -1.62700
       O    -8.27102    4.61382   -2.29297
      H1    -7.86917    4.07124   -3.03573
       H    -5.14868    7.33423   -9.61679
       O    -5.64325    7.95438   -9.00982
      H1    -4.87925    8.45508   -8.67052
       H   -11.46712    8.90082   -6.33901
       O   -10.86856    8.19926   -6.68177
      H1   -10.66857    7.68091   -5.90522
       H    -6.81111   12.27769   -7.23741
       O    -7.50904   12.84339   -6.99211
      H1    -8.14258   12.84429   -7.78319
       H    -6.19546    9.35772   -9.67443
       O    -6.81803   10.04206  -10.04704
      H1    -7.65537    9.74210   -9.66268
       H    -1.90067    3.74091   -8.37124
       O    -2.87418    3.64859   -8.18721
      H1    -3.33398    3.59474   -9.03868
       H    -7.21116    8.12290   -1.46859
       O    -6.26853    8.42436   -1.71581
      H1    -5.77569    7.62085   -1.92481
       H    -6.62018    3.87992  -11.07402
       O    -6.93526    3.32602  -11.84552
      H1    -7.15255    3.98308  -12.54072
       H    -9.35320   10.07496   -3.38121
       O   -10.32961   10.11168   -3.23843
      H1   -10.41161    9.94591   -2.27528
       H    -8.75522    6.16824   -1.90756
       O    -8.64856    7.12219   -1.60851
      H1    -9.47994    7.24039   -1.23148
       H    -7.20370    9.77573   -2.89961
       O    -7.74709   10.17867   -3.63843
      H1    -7.57369    9.70460   -4.51231
       H   -12.63904    8.10629   -4.43573
       O   -12.42930    7.24682   -4.12847
      H1   -12.95158    7.12309   -3.33487

