126
frame 4 | Written by MDAnalysis XYZWriter (release 2.4.3)
       H    14.84155    5.52131   17.79307
       O    14.48306    5.30212   16.87025
      H1    14.41735    6.19542   16.45575
       H     6.91781    7.56801   12.44158
       O     7.70481    7.12310   12.03452
      H1     7.88164    7.76148   11.38185
       H    16.67277    5.82897   11.38251
       O    15.99477    6.51973   11.06158
      H1    15.10800    6.31901   11.44305
       H    10.61895    6.07177   16.56341
       O     9.76943    6.41417   16.22238
      H1     9.22939    5.60677   16.06790
       H    13.77499    3.13010    8.85334
       O    14.38608    3.82771    8.50408
      H1    13.94119    4.66255    8.65417
       H     9.18438    8.97100   13.98197
       O     9.73107    9.15814   13.19250
      H1     9.59101    8.38835   12.62852
       H    11.06470    3.09159   14.77950
       O    11.54857    2.37531   15.17881
      H1    12.32713    2.23892   14.68349
       H    12.25329   11.64527    9.05334
       O    11.34089   11.29801    8.99040
      H1    10.87973   11.87994    9.68880
       H    15.41212   10.25858    9.35069
       O    15.45758    9.91851   10.23914
      H1    15.50105    8.98110   10.10135
       H    14.83649    3.38657   13.22749
       O    14.03413    3.66834   13.70161
      H1    14.22481    3.77351   14.64422
       H    12.53115    7.93721   14.68366
       O    11.97303    7.77374   13.90257
      H1    11.28554    8.47524   13.94588
       H    13.77199   10.31468   11.05367
       O    13.03774   10.74627   11.51638
      H1    12.28035   10.49604   10.91211
       H    11.52505    7.19581    7.28126
       O    11.58971    8.00397    6.76660
      H1    10.76495    8.10017    6.30779
       H    11.03996   14.89590   14.16541
       O    11.11319   13.95855   14.51905
      H1    11.57239   13.46693   13.83664
       H     9.05068    8.46217   16.39325
       O     8.51402    9.09048   15.82664
      H1     7.61129    8.65548   15.83331
       H     8.35191    6.78573    6.72655
       O     8.43732    7.08777    7.67120
      H1     8.01480    7.93962    7.71121
       H    12.98003    7.04292    4.29342
       O    13.13193    6.42729    5.06911
      H1    12.54253    6.85569    5.72293
       H    14.55925   10.65998   14.20158
       O    14.23296    9.79061   13.89923
      H1    13.58535   10.03065   13.20892
       H     7.88881    6.67862   15.29993
       O     6.94866    6.58486   15.50357
      H1     6.66386    5.83988   14.99117
       H    11.63265    7.66283   11.39666
       O    10.96639    7.00382   11.10937
      H1    10.80247    6.51847   11.92111
       H     5.90238   11.26221   10.75249
       O     6.60302   10.58994   10.82271
      H1     7.30824   10.89656   11.38654
       H    15.04767   12.09342    8.49853
       O    14.42504   11.42133    8.35470
      H1    14.48529   11.12183    7.46038
       H    15.35795    3.26514   10.75112
       O    15.58286    2.80942   11.56626
      H1    15.62214    1.92193   11.28110
       H     8.55147   12.05673   13.13208
       O     8.49312   11.49130   12.41081
      H1     9.06769   10.77684   12.69740
       H    13.51974    9.33384    6.56796
       O    13.99096    9.94277    6.00445
      H1    14.85269    9.59326    5.80330
       H    11.67440    6.40803    9.50473
       O    12.07148    6.04734    8.70090
      H1    11.59862    5.20143    8.63147
       H    10.24529   11.57085    7.71475
       O     9.62133   11.56890    6.93313
      H1     9.90200   12.38064    6.41893
       H     8.39971   10.26817    7.89089
       O     7.70403    9.66282    8.22367
      H1     7.52888    9.88083    9.13733
       H    13.08624    6.75101   12.99029
       O    13.56026    6.09807   12.50651
      H1    13.56773    5.34174   13.09198
       H    10.79384    3.26486    7.29844
       O    10.81350    3.58818    8.18541
      H1    10.13741    3.04363    8.63952
       H    10.17881   13.98247   10.59061
       O    10.34245   13.01824   10.87429
      H1     9.49586   12.67710   11.18221
       H    18.40520    9.90062    9.43584
       O    17.95814   10.73954    9.81366
      H1    17.04236   10.52998   10.06727
       H     9.07715    4.13216   14.33825
       O     8.48568    3.82566   14.98203
      H1     8.04875    3.14200   14.45491
       H    15.64892    8.90693   14.14432
       O    16.41457    8.31611   14.34031
      H1    16.42489    7.64222   13.62338
       H    10.58248    3.88395   12.25607
       O    10.83643    4.47151   13.01783
      H1    11.77156    4.62425   12.88955
       H    12.18900    2.61233    8.75654
       O    12.74297    1.90767    9.04349
      H1    12.40375    1.39175    9.79715
       H     5.18063    9.15096   13.52498
       O     5.53790    8.82381   12.66346
      H1     5.80561    9.60204   12.17905
       H    12.12874   13.61409   11.77437
       O    12.94201   13.55857   12.32402
      H1    12.99396   12.57873   12.17141
       H    13.89384    6.69990    8.90347
       O    14.80160    6.95021    8.63271
      H1    15.32612    6.42473    9.26458
       H     9.04982    3.63446   10.60132
       O     9.46736    2.85824   11.11885
      H1     9.73601    2.11901   10.52951
       H    14.68636    8.05210   15.21021
       O    13.94029    7.75451   15.72390
      H1    13.62218    8.34889   16.36374
       H     8.67428    5.40733    9.26402
       O     8.31542    5.00492   10.05134
      H1     8.37982    5.59035   10.78945

