126
frame 5 | Written by MDAnalysis XYZWriter (release 2.4.3)
       H    -7.92714    5.09828   -6.33142
       O    -7.43200    4.28013   -6.10934
      H1    -8.01078    3.68879   -5.51841
       H   -11.40687    7.04751   -5.20397
       O   -10.38917    6.88595   -5.33872
      H1    -9.83587    6.91913   -4.50896
       H    -7.10996    6.36043   -8.22348
       O    -7.90278    6.45782   -7.62976
      H1    -8.58875    6.00232   -8.13767
       H   -13.98691    2.21059   -6.55262
       O   -13.32633    1.53278   -6.39722
      H1   -12.54872    1.80479   -6.91636
       H   -10.12768   -1.40265  -11.20298
       O   -10.30945   -0.54196  -11.60553
      H1   -10.99983   -0.56108  -12.24362
       H   -10.48487    4.66735   -7.87767
       O   -10.15196    5.18329   -8.63005
      H1    -9.83009    4.50133   -9.21518
       H    -7.41444    2.04427   -3.64685
       O    -6.63643    2.20188   -3.08175
      H1    -6.74984    1.49156   -2.38591
       H   -11.73925    3.85116   -5.69181
       O   -11.01330    4.29629   -6.13189
      H1   -10.91789    5.17263   -5.72200
       H    -9.83939   -1.77681   -9.00685
       O    -8.98921   -2.09876   -9.21502
      H1    -8.55077   -1.26275   -9.31214
       H    -8.17403    1.32722   -5.75319
       O    -8.56227    1.71497   -4.92917
      H1    -9.51439    1.82102   -5.05712
       H   -15.04564   -1.17938   -8.78203
       O   -14.90887   -2.02075   -9.28647
      H1   -14.77277   -1.71175  -10.18807
       H   -15.71915   -2.58483   -5.00539
       O   -15.82048   -1.71184   -5.34290
      H1   -14.96081   -1.48508   -5.73447
       H   -15.10094    1.18128  -11.31863
       O   -15.24937    1.86949  -10.63632
      H1   -16.09830    2.37114  -10.69109
       H   -12.02117    2.25770  -10.77623
       O   -12.06610    1.30845  -10.51071
      H1   -11.21278    0.92330  -10.79144
       H    -6.97762    1.44838   -7.20575
       O    -6.96254    0.50950   -6.87131
      H1    -6.17224    0.45375   -6.32906
       H   -10.73565    6.73995  -12.04843
       O   -10.42919    7.01103  -12.93574
      H1    -9.77668    6.32901  -13.15541
       H   -12.61842    5.16783  -10.59727
       O   -12.61692    4.31829  -11.13850
      H1   -13.32415    4.43511  -11.77283
       H    -7.78719    0.75686  -12.77943
       O    -8.04808   -0.13486  -12.93601
      H1    -8.89520   -0.28718  -12.46428
       H    -7.10347    3.29055   -9.06341
       O    -6.92353    2.84618   -8.21208
      H1    -7.19109    3.39149   -7.49518
       H   -15.48389    3.30462   -3.07512
       O   -14.63771    2.92759   -3.10137
      H1   -14.07630    3.52238   -2.57121
       H   -14.90756    6.81871   -7.43924
       O   -15.71356    7.41094   -7.42184
      H1   -16.24723    6.90268   -8.08538
       H   -13.03870    6.52310   -6.57417
       O   -13.30677    6.22877   -7.46203
      H1   -12.62249    6.75975   -7.93936
       H   -11.29792    3.90651  -12.30130
       O   -10.56789    3.40237  -12.71257
      H1   -10.02069    4.14054  -13.14525
       H   -15.47868    3.82475   -5.76332
       O   -14.89442    3.70562   -6.52948
      H1   -14.35308    4.46023   -6.69477
       H   -12.93153   -1.53740   -5.30840
       O   -13.11597   -1.29279   -6.22236
      H1   -13.10373   -0.31566   -6.13670
       H    -9.63935    3.12167  -11.23644
       O    -9.21233    3.16036  -10.36216
      H1    -9.93151    2.80545   -9.76288
       H   -12.02252    7.44488  -10.16051
       O   -11.36067    6.75238  -10.43223
      H1   -11.08784    6.36338   -9.58179
       H   -17.23397    1.22641   -5.68176
       O   -17.35589    0.71227   -6.55252
      H1   -16.55766    0.82468   -7.05153
       H   -11.13807    0.39392   -1.64247
       O   -11.79894    0.37427   -2.35475
      H1   -11.71230    1.18520   -2.86564
       H   -15.05716    0.97597   -9.26817
       O   -15.17239    0.52037   -8.38577
      H1   -14.25431    0.53321   -8.00712
       H   -15.35098    4.75748  -12.38626
       O   -14.85788    3.95464  -12.68568
      H1   -15.01284    3.32470  -12.00642
       H   -10.00733   -0.66441   -6.33488
       O   -10.53254   -0.64241   -7.10184
      H1   -11.43491   -0.89866   -6.88727
       H   -10.54766    0.83485  -14.92080
       O   -11.11996    1.60733  -14.99191
      H1   -10.82236    2.17293  -14.24872
       H   -11.68641   -2.85981   -8.01448
       O   -12.04320   -2.64803   -8.89914
      H1   -12.99179   -2.44461   -8.71585
       H    -9.13541   -3.79661   -6.33067
       O    -9.80468   -4.11032   -6.96590
      H1    -9.38369   -3.89094   -7.84174
       H   -11.52249    8.66229   -7.25209
       O   -10.90287    8.04711   -7.69824
      H1   -10.37878    7.55104   -7.00215
       H   -12.70528    2.46108   -4.47372
       O   -11.88075    2.53842   -4.05765
      H1   -12.05625    3.29434   -3.41937
       H   -12.49630   -1.05898   -3.10019
       O   -12.93096   -1.77138   -3.59409
      H1   -12.71507   -2.53211   -3.13195
       H    -6.28350    0.08811   -8.51459
       O    -5.69280    0.01889   -9.29514
      H1    -6.15140   -0.52700   -9.98242
       H    -3.61542    3.92334   -8.28626
       O    -4.27964    3.52606   -7.73436
      H1    -5.03447    3.41287   -8.33186
       H    -7.66395    2.78789  -12.30021
       O    -6.88056    2.23610  -12.50211
      H1    -6.70520    2.28733  -13.43840
       H   -11.71041    1.93533   -8.62997
       O   -10.97559    2.02084   -7.99405
      H1   -10.62951    1.10926   -7.83945

