126
frame 2 | Written by MDAnalysis XYZWriter (release 2.4.3)
       H    14.66793  -12.69170    3.94983
       O    13.85533  -12.50521    3.39226
      H1    13.17457  -13.16875    3.70653
       H    16.67676  -13.98737    0.29032
       O    16.63737  -13.10824   -0.11308
      H1    16.29412  -13.21678   -0.99367
       H    10.19223  -13.14905    0.37177
       O     9.24487  -12.90501    0.53747
      H1     9.14828  -12.14092   -0.01915
       H    11.06149  -14.01108    3.53510
       O    11.77213  -14.41027    4.09271
      H1    11.78520  -15.34818    3.85289
       H    13.13586  -16.24009   -2.83023
       O    13.29836  -15.86674   -3.66807
      H1    14.19663  -16.18324   -3.80994
       H    14.10395  -11.79136    1.90536
       O    14.26963  -11.66084    0.95246
      H1    15.06171  -12.16378    0.83425
       H     9.47671  -14.08818    5.95495
       O    10.30646  -14.13020    6.36940
      H1    10.97115  -14.38967    5.68871
       H     9.05416  -17.74179    1.60952
       O     9.31915  -16.81243    1.79708
      H1     9.25260  -16.78909    2.73106
       H     8.39106  -14.06730   -0.30873
       O     7.89049  -14.54412   -0.95692
      H1     8.01423  -14.05254   -1.81889
       H    15.98725  -12.77802    6.08554
       O    15.89464  -12.91914    5.11609
      H1    16.55696  -12.27623    4.75704
       H     9.71299  -18.18591   -0.60839
       O     9.08179  -18.60232   -0.05820
      H1     8.25856  -18.49796   -0.54661
       H    20.11985  -15.01236    5.22045
       O    19.66379  -14.18172    4.96039
      H1    19.02464  -14.50470    4.30618
       H    19.02121  -17.83766    1.95149
       O    18.78195  -18.67947    2.46052
      H1    17.79290  -18.84653    2.36534
       H    13.15306  -11.27323    4.00208
       O    12.43363  -10.65498    4.36342
      H1    12.97159  -10.16926    5.03327
       H    13.87838  -18.41544   -2.21329
       O    13.67709  -17.67497   -1.64189
      H1    13.54288  -17.90154   -0.72215
       H    12.86479  -13.05849    0.44250
       O    11.98986  -13.09619   -0.01020
      H1    11.82256  -13.99190   -0.37256
       H     7.66917  -15.87273    1.63136
       O     6.81126  -15.37663    1.56417
      H1     6.83373  -15.07109    0.69572
       H     9.28310  -10.39963    3.17510
       O     9.47775  -10.70228    4.09104
      H1    10.48787  -10.77349    4.09453
       H    15.81819  -14.19480   -2.73917
       O    16.02628  -13.28654   -3.05334
      H1    15.21644  -12.91269   -3.45185
       H     9.60585  -17.55817    8.39785
       O     9.55123  -18.14180    9.20091
      H1     8.85269  -17.82059    9.76991
       H    12.66770  -19.42918    8.33340
       O    13.59481  -19.12541    8.22492
      H1    14.12510  -19.91453    8.38682
       H    15.94270  -15.84145    3.79575
       O    15.11759  -15.27084    3.70378
      H1    15.25865  -14.59783    4.42093
       H    11.26723  -18.77505   -2.25514
       O    10.67847  -18.02738   -2.28480
      H1    10.50684  -17.74899   -3.21984
       H    12.27197  -16.11609    8.94574
       O    12.60601  -16.63684    8.17664
      H1    12.88536  -17.46708    8.49546
       H    10.80665  -16.56200   -1.15912
       O    10.90343  -15.68681   -0.77730
      H1     9.94455  -15.49472   -0.45898
       H    12.91087  -18.96815    1.23388
       O    13.39789  -18.13529    0.97349
      H1    14.35914  -18.34441    1.17507
       H    11.54586  -18.57360    3.75221
       O    11.36991  -19.52446    3.81439
      H1    11.68661  -19.83369    4.68202
       H    13.93824  -18.27398    4.69672
       O    14.31798  -18.90934    5.31392
      H1    13.70472  -18.84767    6.07807
       H     7.92129  -13.81583    4.95372
       O     7.58853  -14.23571    5.78208
      H1     6.99680  -14.84361    5.32048
       H    17.28110  -15.76131    1.52909
       O    16.36712  -15.90694    1.40490
      H1    15.89966  -15.45686    2.14603
       H    17.01030  -16.70263    5.44749
       O    17.38582  -16.59600    4.51244
      H1    17.37566  -17.47867    4.15585
       H     6.43548  -17.06119    6.37094
       O     6.24072  -16.74500    5.50083
      H1     7.10816  -16.70046    5.05045
       H    16.30136  -17.72640    1.28000
       O    16.15098  -18.64031    1.58225
      H1    16.11267  -19.14346    0.75387
       H    13.01800  -17.11184    2.63298
       O    12.98593  -17.07546    3.64450
      H1    13.62187  -16.40063    3.78959
       H    16.46072  -16.24093    7.72912
       O    16.45341  -17.01925    7.14963
      H1    15.60366  -17.12231    6.72497
       H     8.86143  -12.35255    3.73302
       O     8.86873  -13.30842    3.54004
      H1     8.30049  -13.37252    2.75723
       H     8.39320  -17.95028    4.46817
       O     8.77068  -17.11176    4.59816
      H1     9.19762  -17.14748    5.48047
       H    16.25936  -16.05160   -3.05314
       O    16.11898  -15.91088   -2.09142
      H1    15.30787  -16.37837   -1.89110
       H     9.95338  -15.81733    6.96228
       O    10.12334  -16.76327    6.95822
      H1    11.05994  -16.86833    7.22196
       H    17.43631  -17.24450   -1.43397
       O    18.35101  -17.55089   -1.33936
      H1    18.18729  -18.46562   -1.20510
       H    11.43734  -12.48652   -1.60457
       O    10.86442  -12.20531   -2.29555
      H1    11.11077  -12.65472   -3.11158
       H    10.49081  -12.42851    9.07824
       O    11.12067  -12.32636    8.34643
      H1    10.89503  -12.96634    7.64903

