126
frame 0 | Written by MDAnalysis XYZWriter (release 2.4.3)
       H    -2.99539    2.83032   -3.14153
       O    -3.86636    2.44209   -2.99600
      H1    -4.09026    2.78442   -2.14275
       H    -5.95997    5.73208   -5.51779
       O    -5.63044    4.98652   -6.07275
      H1    -5.93130    4.30471   -5.42528
       H    -1.45578    5.58836    0.57442
       O    -1.69741    4.67847    0.34367
      H1    -1.17863    4.02215    0.83890
       H    -7.50455    2.84031   -4.52712
       O    -6.53916    3.05216   -4.34209
      H1    -6.48387    2.85807   -3.38309
       H    -1.81291   -2.26783   -3.57681
       O    -2.40498   -1.67360   -4.08350
      H1    -2.02448   -1.63918   -4.96872
       H    -4.44125    0.67843   -5.52766
       O    -5.30650    0.80257   -5.10155
      H1    -5.43003    1.73512   -4.82796
       H    -5.37488   -1.90796   -3.26397
       O    -4.87568   -2.57039   -3.75872
      H1    -3.90225   -2.35044   -3.73598
       H    -3.77048    9.94335    0.07813
       O    -3.54129    9.08338   -0.32193
      H1    -4.15102    8.87777   -1.09810
       H    -9.83868    3.46220   -5.52050
       O    -9.16819    2.72948   -5.45354
      H1    -9.61054    1.95818   -5.05090
       H    -6.83195    5.65478    1.81681
       O    -6.92720    5.87543    0.86463
      H1    -7.57200    5.25436    0.49956
       H    -5.76393    4.88489   -3.27808
       O    -6.01730    5.37442   -2.46202
      H1    -5.47495    5.07695   -1.75168
       H    -3.42132    7.34576    0.97628
       O    -3.75075    6.62443    1.51238
      H1    -3.15632    6.71180    2.26957
       H    -6.96539    1.81106   -7.21508
       O    -7.10188    0.85297   -7.03541
      H1    -6.65057    0.65828   -6.18810
       H    -2.69057    1.27299    3.55943
       O    -2.63267    1.81733    2.78415
      H1    -3.50863    1.86052    2.34837
       H    -0.49977    5.96280   -2.23598
       O    -0.33656    4.98821   -2.08448
      H1    -0.84382    4.82150   -1.23038
       H    -8.19154    3.29072   -7.80569
       O    -7.18540    3.43297   -7.72171
      H1    -6.98253    4.14647   -7.14678
       H    -4.49954    2.56776    0.44531
       O    -4.80595    1.71720    0.84064
      H1    -4.78787    1.00033    0.27413
       H     1.00601    3.90030   -1.93575
       O     1.79165    3.34666   -2.03154
      H1     2.15390    3.28933   -1.14283
       H    -0.08846    1.09595   -5.05057
       O    -0.16357    0.83648   -5.98455
      H1     0.25696   -0.00889   -5.98515
       H    -1.86297    0.48931   -1.57311
       O    -1.10469    1.07900   -1.45766
      H1    -0.39989    0.73955   -2.00611
       H    -7.50745    3.02067    1.97871
       O    -7.33945    2.15837    1.49321
      H1    -6.37956    2.22367    1.27987
       H    -3.57139    5.20299   -6.03175
       O    -2.69069    5.53849   -5.76235
      H1    -2.32856    4.78200   -5.26089
       H    -4.19208   -0.70800   -0.71121
       O    -4.70348   -0.81519    0.17634
      H1    -5.60660   -1.10179   -0.05461
       H    -6.87583    1.18279   -2.38849
       O    -6.90628    1.97468   -1.87789
      H1    -6.81477    1.78425   -0.91447
       H     1.39156    1.83198   -3.00229
       O     1.07537    0.96253   -3.36315
      H1     1.89463    0.67046   -3.91054
       H    -6.29405   -0.11937   -3.80979
       O    -6.98980   -0.42220   -3.29303
      H1    -7.44057   -1.13031   -3.74070
       H    -8.02608   -1.79196   -0.93101
       O    -7.60250   -1.22755   -0.23980
      H1    -7.96614   -1.64847    0.58140
       H    -8.06625    4.45621   -2.43165
       O    -9.02457    4.74274   -2.56778
      H1    -9.53750    3.87104   -2.67666
       H    -1.47406   -1.36134    2.35189
       O    -0.54182   -0.98338    2.50278
      H1    -0.60089   -0.11270    2.01048
       H    -0.69007    1.70566    0.27397
       O    -0.56027    2.09099    1.17132
      H1    -1.40265    2.01398    1.69032
       H    -4.89547    5.10610    0.36158
       O    -4.53478    4.38845   -0.18131
      H1    -3.56911    4.51380   -0.24659
       H    -2.26310    4.87640   -7.35375
       O    -2.40063    4.49289   -8.26017
      H1    -2.93287    3.70981   -8.04294
       H    -3.50403   -0.83552    3.29416
       O    -3.38487   -1.36865    2.56434
      H1    -3.90376   -0.97639    1.87197
       H    -5.87413    8.38012   -2.31271
       O    -4.95333    8.19991   -2.55208
      H1    -4.88304    7.25398   -2.66671
       H    -4.86749    6.06118    2.79382
       O    -5.59816    5.78410    3.43386
      H1    -5.73278    6.55631    3.98499
       H    -8.78892    6.43417   -3.43134
       O    -8.98278    7.25007   -4.00152
      H1    -9.40912    7.81806   -3.30921
       H    -0.23140    3.68526   -4.93331
       O    -1.12073    3.74995   -4.53453
      H1    -0.88441    4.21190   -3.67906
       H    -7.44275    7.75253   -4.75792
       O    -6.55670    7.48832   -5.09738
      H1    -6.44512    8.21619   -5.69881
       H    -2.88157   -0.50793   -2.84421
       O    -3.42799   -0.02948   -2.22094
      H1    -3.52816    0.89010   -2.64974
       H   -10.21669    4.51057    0.49630
       O    -9.41729    4.89970    0.00790
      H1    -9.48724    4.84382   -0.95439
       H    -1.91327    0.70915   -6.30451
       O    -2.85200    0.59823   -6.58152
      H1    -3.21355    1.17231   -7.28141
       H    -9.13730    0.22332   -0.40536
       O    -9.44587    1.08136   -0.16138
      H1    -8.74089    1.35971    0.43950

