126
frame 8 | Written by MDAnalysis XYZWriter (release 2.4.3)
       H    17.17268   -2.56767   12.86904
       O    16.98982   -2.73631   13.83305
      H1    17.11795   -1.91301   14.32166
       H     7.99810   -2.00436   16.70870
       O     7.90443   -2.97683   16.76122
      H1     8.81160   -3.17277   17.00550
       H    16.03938   -0.83295   18.22795
       O    16.82829   -0.28797   18.15003
      H1    16.55569    0.58939   18.43146
       H    17.94213   -3.89016   11.19472
       O    18.12153   -2.92707   11.35755
      H1    18.80332   -2.80212   12.00192
       H    17.97153    0.19137   15.31485
       O    17.39010   -0.60094   15.36519
      H1    17.08102   -0.56873   16.24783
       H    11.62738    2.71326   13.71674
       O    12.07845    2.46748   14.58393
      H1    12.99044    2.37765   14.21614
       H    12.49098  -11.61202   15.31595
       O    13.40381  -11.40459   15.45873
      H1    13.44869  -10.54000   15.89032
       H    15.35252   -2.07397    9.75666
       O    15.35817   -2.13684   10.71772
      H1    16.18310   -2.65585   10.97210
       H    11.39209   -5.97505   14.44408
       O    11.54377   -6.43333   13.63349
      H1    10.87741   -7.11581   13.48174
       H    17.06199    3.48342   13.31629
       O    16.95650    3.99968   14.10757
      H1    16.42402    3.42417   14.69409
       H    13.50567   -1.69488   13.24774
       O    13.39509   -0.73230   13.25842
      H1    13.67983   -0.57802   12.30661
       H    11.40291   -9.40862   18.21045
       O    11.64122   -8.72149   18.89431
      H1    11.07084   -8.97057   19.61792
       H    15.89083    0.45938   14.99389
       O    14.99136    0.84592   15.03855
      H1    14.45967    0.33530   14.38759
       H    13.98827   -8.11180   15.21133
       O    14.12660   -7.84049   14.29315
      H1    13.76196   -6.98396   14.11720
       H    13.02536   -4.67428   19.09684
       O    13.89189   -4.84135   18.83402
      H1    14.54757   -4.27333   19.21205
       H    17.31694   -7.61509   18.83757
       O    17.04556   -8.34751   19.45106
      H1    16.79206   -9.14087   18.91831
       H    18.98485  -11.31846   15.97543
       O    18.18046  -10.84882   16.30208
      H1    17.75565  -10.52430   15.47376
       H    16.40932   -0.67396   11.20163
       O    16.89831    0.13134   11.13878
      H1    17.77214   -0.11115   10.91624
       H    16.51278   -3.70869   17.41053
       O    16.34755   -3.07612   18.11579
      H1    16.65817   -3.53076   18.93300
       H    11.39901   -5.84119   17.19070
       O    11.13753   -5.30681   16.43268
      H1    11.90031   -4.71092   16.29746
       H    15.38593  -10.78528   19.42205
       O    15.80719  -10.58433   18.55853
      H1    16.61888  -11.18451   18.51957
       H    14.49518   -9.45451   17.34748
       O    13.78103   -9.14663   16.81564
      H1    13.14684   -8.74732   17.42021
       H    19.53781   -4.46208   15.17050
       O    18.80910   -4.60705   14.56598
      H1    18.42368   -3.72902   14.48525
       H    13.59157   -6.70025   11.82197
       O    14.38767   -6.16265   11.68986
      H1    14.26848   -5.38142   12.27835
       H    16.46286    2.64430   18.22361
       O    16.83889    2.26920   19.01861
      H1    17.77243    2.09153   18.95506
       H    11.61442   -1.78890   16.49520
       O    12.51047   -1.46787   16.27150
      H1    12.43352   -1.30585   15.29417
       H    20.19644   -8.11327   17.26776
       O    19.31146   -7.96553   16.85243
      H1    18.93193   -8.87755   16.91383
       H    13.99712   -8.64503   12.58774
       O    14.07187   -9.19854   11.82197
      H1    14.96063   -9.07387   11.53791
       H     8.81610   -4.81250   20.24997
       O     9.14030   -5.05606   19.37090
      H1     8.31712   -5.15741   18.89939
       H    13.27959   -3.29336   16.35594
       O    13.83598   -4.08673   16.27533
      H1    13.89631   -4.33333   17.23074
       H    17.52958   -8.43622   14.02084
       O    16.95019   -9.19460   14.17733
      H1    16.05988   -8.84665   14.01408
       H    15.65847   -4.61041   15.67422
       O    16.48524   -5.01923   16.04095
      H1    17.26540   -4.79450   15.54001
       H     9.55768    1.74448   19.71956
       O    10.27589    1.69001   19.10927
      H1    10.97867    1.18164   19.49338
       H    17.78175   -6.30883   10.57238
       O    17.03183   -5.73179   10.72959
      H1    16.49158   -6.02029   11.47768
       H     9.09313    0.30661   18.36282
       O     8.37518   -0.30394   18.11363
      H1     7.96974    0.11315   17.36676
       H    15.01430    2.59683   16.07967
       O    15.58320    3.22600   16.54740
      H1    14.94426    3.93998   16.65231
       H    18.45984   -6.29087   13.59193
       O    18.75503   -7.10252   13.18687
      H1    19.71777   -7.00093   13.31713
       H    13.47257   -0.32497   17.16715
       O    14.12012    0.24310   17.59236
      H1    14.73153    0.38016   16.80192
       H    14.00311   -4.06036   14.16390
       O    14.17435   -3.56447   13.37174
      H1    14.95141   -2.99578   13.47682
       H    18.51116   -6.68591   17.57854
       O    17.84333   -6.27780   18.10525
      H1    17.17321   -6.01636   17.48024
       H     9.60383   -3.00603   14.15034
       O    10.52068   -2.64960   14.10571
      H1    10.42964   -2.04567   13.34559
       H    19.04646    2.02134   16.21909
       O    18.61403    1.93536   15.37847
      H1    18.16961    2.80021   15.25675

