126
frame 6 | Written by MDAnalysis XYZWriter (release 2.4.3)
       H    19.32479    3.33683    6.11230
       O    18.58728    2.96821    6.54457
      H1    17.72980    3.43490    6.31386
       H    17.67182    6.33562    5.08357
       O    18.55657    6.09081    5.33172
      H1    19.15936    6.66433    4.92716
       H    17.27018    6.55516   10.91008
       O    16.40522    6.60317   10.52058
      H1    15.97653    5.88206   10.94690
       H    19.20095    6.64898    9.89239
       O    19.17816    6.28111   10.77820
      H1    19.46474    5.33851   10.75290
       H    16.20783   12.27317    4.17347
       O    16.48408   12.63832    3.32494
      H1    16.71230   11.88457    2.81615
       H    13.77583    4.89482    2.22049
       O    13.88033    4.24823    1.49769
      H1    14.21905    3.49117    2.00256
       H    15.72999    3.15469    7.52156
       O    15.86259    3.58670    6.64298
      H1    15.87415    4.55161    6.78360
       H    13.35962    9.27334    2.54354
       O    13.25578    8.49340    1.99515
      H1    13.63838    8.77456    1.12012
       H    19.13361    7.70332    8.08886
       O    18.95004    6.80031    7.99561
      H1    18.78582    6.67999    7.02293
       H    14.32131    2.84130    5.50795
       O    13.85530    2.40106    4.74979
      H1    13.35224    1.67516    5.10968
       H    12.85159    3.82295    4.34076
       O    12.38898    4.64638    4.66901
      H1    11.54599    4.73452    4.23668
       H    10.14251    6.39409    5.26554
       O     9.55856    5.79381    4.82410
      H1     9.82456    4.91215    4.94995
       H    14.33520    9.96467    9.52931
       O    14.91929    9.42310   10.15960
      H1    15.26110    8.67804    9.57613
       H    18.25736    2.88554    1.34792
       O    18.02686    3.34139    0.51971
      H1    18.76349    3.17371   -0.06497
       H    12.47004    7.29429    6.30202
       O    12.46853    7.78434    5.45178
      H1    11.60214    8.21668    5.35823
       H    18.69561    9.68690    1.53438
       O    18.74223    9.66421    2.48430
      H1    19.32092    8.94491    2.72235
       H    15.96379    2.63430    3.33131
       O    16.56692    2.05714    2.86369
      H1    16.10713    1.28105    2.51919
       H    19.63923    2.70868    9.74423
       O    19.77451    3.42740    9.08164
      H1    19.41814    3.08740    8.19372
       H    17.18538    9.72193    3.42291
       O    16.47330    9.77447    4.05972
      H1    16.21393    8.84029    4.14614
       H    17.55537   10.94312    5.34715
       O    17.80024   11.74072    5.87079
      H1    18.74691   11.60729    6.07281
       H    16.14665    1.70047    9.36991
       O    15.67994    2.53260    9.55211
      H1    14.75704    2.23138    9.72313
       H    16.03825    6.92712    6.32317
       O    16.16215    7.11607    5.34598
      H1    15.38948    6.76593    4.83902
       H     9.99578    9.97627    5.97485
       O    10.05571    9.18530    5.38312
      H1     9.67788    9.47752    4.55870
       H    18.71176   -0.08320    7.24859
       O    17.95189    0.44854    7.08550
      H1    18.31161    1.31035    6.80772
       H    16.66099   11.89429    9.24776
       O    16.20053   12.35768    8.53481
      H1    16.84650   12.26202    7.82915
       H    13.95208    6.97324    3.03922
       O    14.21869    6.15158    3.42882
      H1    13.57594    6.05898    4.15021
       H    14.54607   13.30257    6.21747
       O    14.30373   12.55948    5.69115
      H1    13.74116   12.02013    6.23413
       H    14.34531   11.81214    8.75973
       O    13.65308   11.17734    8.44778
      H1    14.19623   10.70982    7.82037
       H    13.81439    8.89357    6.26497
       O    14.57008    9.34036    6.72779
      H1    15.30256    9.24493    6.09410
       H    12.08767    6.46433    8.47259
       O    12.66119    6.41993    7.68154
      H1    12.55109    5.47518    7.46487
       H    16.92179    4.66897    1.79933
       O    16.92904    5.30463    2.49293
      H1    17.58926    5.18555    3.16224
       H    11.93526    3.91714    6.51777
       O    12.08586    3.79979    7.48843
      H1    11.22873    3.50829    7.87920
       H    16.50996    0.40474    6.00826
       O    15.80056    0.13356    5.45144
      H1    16.04871    0.75209    4.74046
       H    10.33831    8.76906    1.92302
       O    10.63283    7.96160    2.37912
      H1    11.59424    8.12019    2.27876
       H    17.87784   10.54779    9.71380
       O    17.31541   10.88117   10.49284
      H1    16.54689   10.35661   10.45706
       H    15.29333    8.10071   -0.36272
       O    14.36037    8.13146   -0.51322
      H1    14.05309    7.38407   -1.01134
       H    14.29493    8.50442   12.68481
       O    15.01648    7.84268   12.59869
      H1    15.39113    8.01300   11.72191
       H    14.76917    6.52269    8.04634
       O    15.67317    6.24731    7.84538
      H1    16.03740    6.02406    8.70509
       H    14.68366   10.50702    3.36145
       O    13.80677   10.85582    3.54923
      H1    14.05896   11.71328    3.99671
       H    13.41809   13.86203    2.64654
       O    12.89264   13.10296    2.34014
      H1    13.21823   12.30206    2.78676
       H    14.83695    4.49396   -1.12386
       O    14.12487    5.15111   -1.21920
      H1    13.87836    5.13694   -0.27220
       H    17.30843    6.82676    1.10407
       O    17.28746    7.48847    0.45392
      H1    17.26981    6.85824   -0.34977

