126
frame 4 | Written by MDAnalysis XYZWriter (release 2.4.3)
       H     4.01303   -4.66350   -5.68998
       O     4.22203   -3.80122   -6.04765
      H1     3.53985   -3.46191   -6.65976
       H    -4.62919   -3.00481   -7.40016
       O    -4.15290   -2.11715   -7.46832
      H1    -4.64652   -1.61078   -8.13533
       H     4.10031   -0.97059   -3.03933
       O     4.16820   -1.69525   -3.64423
      H1     5.07195   -2.07819   -3.39615
       H    -0.70122   -2.59293   -4.45533
       O    -1.01926   -1.76577   -4.09312
      H1    -0.34382   -1.35321   -3.51358
       H     0.41201   -6.82144   -3.69175
       O     0.84926   -5.95455   -3.95038
      H1     1.81980   -6.15956   -3.88721
       H    -4.35382   -1.33872   -6.06702
       O    -4.69801   -0.86736   -5.28637
      H1    -3.99786   -0.16420   -5.16511
       H    -2.69392   -5.79887   -6.59105
       O    -3.57908   -6.12105   -6.55430
      H1    -3.67383   -6.58006   -7.39289
       H    -1.15317    1.51126   -7.92510
       O    -0.35255    1.93859   -8.26433
      H1    -0.45710    1.96017   -9.22230
       H    -3.99072   -2.19491   -2.73581
       O    -3.25742   -2.66139   -2.34658
      H1    -2.53397   -2.60005   -3.01941
       H    -0.36147   -5.46746   -6.84209
       O    -0.91360   -5.04281   -6.16199
      H1    -0.45032   -5.17572   -5.30729
       H     0.81226   -3.93299  -10.95256
       O     0.80161   -3.86674  -10.03156
      H1    -0.10448   -4.30792   -9.86576
       H    -0.15650   -6.66918  -10.81488
       O    -0.94958   -6.44404  -10.26762
      H1    -1.79686   -6.39940  -10.76052
       H    -1.82345   -4.87081    0.48664
       O    -2.14173   -4.94761   -0.42014
      H1    -1.42642   -4.79410   -1.00990
       H    -0.55161   -3.36265   -7.08592
       O    -0.24604   -2.60833   -7.51782
      H1     0.45196   -2.98611   -8.11341
       H     1.35283   -1.45006   -1.53101
       O     1.57471   -2.27161   -1.95637
      H1     1.99692   -2.11637   -2.75903
       H     0.20410   -3.40537   -2.31442
       O    -0.36152   -4.20808   -2.42698
      H1     0.12418   -4.76178   -3.06037
       H     5.90078   -4.46964  -10.19000
       O     4.96184   -4.82273  -10.10713
      H1     4.64386   -4.48451   -9.26184
       H     4.49166    3.34357   -4.32963
       O     3.61156    3.23878   -4.69063
      H1     3.05973    3.30797   -3.94753
       H     2.27165   -2.63894   -5.58854
       O     1.51590   -2.15502   -5.32609
      H1     0.86408   -2.23449   -6.03939
       H     4.76429    0.86002   -2.89618
       O     3.91862    0.75719   -2.41610
      H1     4.20931    0.48862   -1.54025
       H     4.60334    3.70108   -8.40273
       O     3.64497    3.58666   -8.53143
      H1     3.26402    2.99955   -7.86590
       H    -1.50849    1.15766  -10.58331
       O    -1.13765    1.97970  -10.98708
      H1    -1.94096    2.48343  -10.94727
       H     4.97795    0.65097   -9.52005
       O     5.54997    0.79598  -10.27932
      H1     4.93217    1.07700  -11.03141
       H     6.54675   -5.09420   -7.33439
       O     6.77475   -4.16056   -7.31379
      H1     5.92637   -3.67507   -7.20857
       H    -1.55690   -3.44730   -8.55794
       O    -2.45691   -3.61336   -8.94630
      H1    -3.02914   -3.08662   -8.38466
       H    -1.45529   -0.08733   -4.84372
       O    -2.06841    0.55649   -5.14810
      H1    -1.85397    1.31537   -4.58467
       H    -0.95978   -0.43731   -1.09691
       O    -0.20389    0.14768   -1.32951
      H1    -0.39311    0.76823   -2.07914
       H     4.44262   -7.08313   -4.35246
       O     3.71090   -6.63802   -4.83519
      H1     3.39723   -7.25968   -5.46565
       H     2.62810   -1.14042  -11.66160
       O     2.96324   -1.77138  -12.30018
      H1     3.09320   -2.61388  -11.90205
       H     2.80248    0.73774   -4.31440
       O     1.96179    0.38051   -4.69680
      H1     2.08252   -0.57712   -4.81393
       H     0.68696    0.27728   -9.84356
       O     1.40230    0.15997  -10.45422
      H1     1.95860    0.94426  -10.48913
       H     2.68270   -8.89835   -7.20157
       O     2.17991   -8.22342   -6.69185
      H1     1.79573   -8.81305   -5.99275
       H     0.03004    2.86358   -3.25288
       O     0.01802    1.90149   -3.36855
      H1     0.86357    1.58092   -3.65217
       H     2.14134    1.03635   -6.43489
       O     2.18595    1.46086   -7.29265
      H1     1.27010    1.63239   -7.46273
       H     4.60588   -3.78876   -2.85322
       O     5.35006   -4.12949   -2.38880
      H1     5.27502   -3.61872   -1.57675
       H    -2.25370   -0.45257   -9.09907
       O    -1.74444   -0.57757   -9.87902
      H1    -1.35779   -1.44952   -9.81949
       H     5.22839   -1.24266   -5.71205
       O     5.70618   -0.73804   -6.38102
      H1     6.34472   -0.15059   -5.90237
       H     1.13608   -6.93806   -7.66762
       O     0.64618   -6.24124   -7.98004
      H1     0.22752   -6.62528   -8.73984
       H     4.59721   -0.14276   -7.50915
       O     3.92581   -0.12458   -8.21898
      H1     3.29353    0.50706   -7.83440
       H    -3.25474   -0.98928   -1.62953
       O    -3.44018   -0.16511   -1.13188
      H1    -3.90872    0.31394   -1.81207
       H    -2.55786    0.48975   -6.92540
       O    -2.94642    0.67741   -7.75829
      H1    -3.55878    1.35626   -7.55097
       H     3.12156   -2.10527   -8.52312
       O     2.86933   -3.01762   -8.29417
      H1     2.31561   -3.38015   -8.99757

