126
frame 10 | Written by MDAnalysis XYZWriter (release 2.4.3)
       H   -15.98576  -17.77016   15.79372
       O   -16.52616  -17.95801   15.03117
      H1   -16.28422  -18.86371   14.68596
       H   -10.06300  -18.85193   16.85601
       O   -10.48921  -19.68754   16.70237
      H1   -10.00897  -20.20016   16.07558
       H   -12.16761  -12.33249   13.13571
       O   -12.32590  -13.18129   12.62498
      H1   -13.17774  -13.57844   12.89377
       H   -17.64020   -9.81291   11.34148
       O   -17.90594  -10.72062   11.56624
      H1   -18.85614  -10.65774   11.84545
       H   -14.26045   -9.32467   15.33062
       O   -14.48569  -10.30931   15.24904
      H1   -14.41423  -10.60248   16.14897
       H   -18.07084  -19.66268    5.50250
       O   -18.46482  -18.90140    5.95946
      H1   -18.34976  -19.14866    6.88855
       H   -16.14227  -13.87783   18.79609
       O   -16.41666  -13.31456   18.04723
      H1   -15.56556  -12.88803   17.81314
       H   -19.97441  -15.77148   15.76515
       O   -19.48176  -16.49349   16.18246
      H1   -19.38925  -17.20745   15.50968
       H   -11.12034  -15.18574   19.89171
       O   -10.80406  -14.51294   19.23564
      H1   -10.66166  -13.63278   19.70900
       H   -17.78053  -18.25340    8.83223
       O   -17.61044  -19.22387    8.75015
      H1   -18.28750  -19.61170    9.29805
       H   -15.55721  -18.04229   11.69801
       O   -16.26645  -17.72589   12.23926
      H1   -15.98480  -17.63668   13.14780
       H   -14.09516  -11.76105   18.69477
       O   -13.94626  -11.93530   17.77505
      H1   -13.24954  -12.55471   17.66365
       H   -13.94786  -20.24694   17.63658
       O   -14.51346  -19.51645   17.68235
      H1   -14.11336  -18.87842   17.14071
       H   -17.33675  -15.84822    8.28777
       O   -18.09068  -16.40727    8.22034
      H1   -18.46103  -16.09818    7.34970
       H   -17.35907  -10.77541   14.17849
       O   -16.89699   -9.93039   14.38011
      H1   -16.10109  -10.26536   14.88913
       H   -13.04252  -10.56038   14.14821
       O   -12.18343  -10.83072   13.82938
      H1   -12.00228  -10.30684   13.01917
       H   -12.47953  -19.04083    6.82289
       O   -11.84115  -18.32507    6.90110
      H1   -11.80079  -17.80699    6.02900
       H   -11.95835  -14.51941   16.23379
       O   -12.34147  -14.20889   17.08340
      H1   -11.67779  -14.30603   17.77537
       H   -17.66432  -17.44401   20.13409
       O   -17.99615  -17.29483   19.22152
      H1   -17.24463  -16.85637   18.68212
       H   -15.28349  -13.13017    8.02604
       O   -15.91388  -13.76214    8.39966
      H1   -15.42070  -14.24878    9.12296
       H   -14.86880  -12.41616   12.53832
       O   -15.28485  -11.84138   11.88292
      H1   -16.17268  -11.61161   12.14113
       H   -11.90029  -16.21790   11.42283
       O   -12.03922  -16.74797   12.18983
      H1   -11.81502  -16.19345   12.96996
       H   -15.33770  -14.44315   12.50180
       O   -14.79046  -14.02795   13.17760
      H1   -14.91903  -14.41351   14.04448
       H   -13.08118  -17.28585    7.87526
       O   -13.79704  -16.97246    8.43513
      H1   -14.07123  -17.86811    8.81831
       H   -17.24335  -18.70872   19.19190
       O   -16.75781  -19.58792   19.03666
      H1   -16.01827  -19.50032   18.44404
       H   -11.48851  -14.30004   13.83236
       O   -11.46161  -15.03783   14.42844
      H1   -10.50228  -15.09804   14.62759
       H   -19.44800  -19.34872   15.20532
       O   -19.21802  -18.74948   14.47359
      H1   -18.30375  -18.58748   14.36382
       H   -10.18271  -16.25918   17.63650
       O   -10.46603  -16.99993   17.12021
      H1   -10.02148  -16.86739   16.29190
       H   -10.70469  -14.36852   10.05966
       O   -10.61770  -13.44026   10.41403
      H1   -11.29178  -13.34234   11.12611
       H   -13.52166  -16.83878   15.51478
       O   -13.21464  -17.72276   15.80414
      H1   -12.35263  -17.72067   16.28422
       H   -17.36974  -12.73489    8.84519
       O   -18.00676  -12.10726    9.16119
      H1   -17.79177  -11.97920   10.11734
       H   -15.94974  -18.71293    9.68730
       O   -15.05549  -18.65973   10.06823
      H1   -14.82396  -19.52631   10.33298
       H   -14.74883  -16.01740    6.82969
       O   -15.51991  -15.75651    6.33028
      H1   -15.78322  -14.92865    6.74147
       H   -17.08943  -14.92570   17.39736
       O   -16.91801  -15.84898   17.20088
      H1   -17.63113  -16.20368   16.67554
       H   -17.56790  -17.60882    4.87639
       O   -16.82846  -17.11011    4.43628
      H1   -16.20598  -16.94330    5.12655
       H   -19.09683  -16.87743   11.19033
       O   -18.92378  -17.81910   11.37477
      H1   -18.02364  -17.82921   11.68826
       H   -17.31451  -10.51477   18.36198
       O   -18.03208  -11.16938   18.38410
      H1   -17.51278  -12.00261   18.33067
       H   -10.23074  -16.37879   10.40737
       O   -10.91581  -16.08384    9.79795
      H1   -11.52761  -16.81707    9.57521
       H   -18.60768  -10.43059   16.81371
       O   -19.05565   -9.85940   16.17303
      H1   -18.33558   -9.59128   15.51210
       H   -12.56480  -18.86845   14.41832
       O   -12.39604  -19.25446   13.51022
      H1   -12.33234  -18.45673   12.99551
       H   -17.47414  -14.80912   11.13111
       O   -16.53623  -14.97919   11.31365
      H1   -16.55915  -15.85959   11.72187
       H   -13.81524  -14.76574   16.20848
       O   -14.55326  -15.14335   15.65021
      H1   -15.19057  -15.48486   16.24782

