126
frame 5 | Written by MDAnalysis XYZWriter (release 2.4.3)
       H     9.27335  -12.09307    8.24962
       O     9.35659  -13.03550    8.11296
      H1     8.68420  -13.59859    8.49566
       H    16.95305  -10.76368   14.98788
       O    17.14637  -11.49676   15.64704
      H1    16.37020  -11.48915   16.16771
       H    11.84530  -17.15133   12.44810
       O    12.35911  -17.45588   11.67251
      H1    11.71311  -17.47899   10.98056
       H     9.04739  -13.61428   13.41380
       O     9.34322  -14.29400   14.05047
      H1     8.63414  -14.41353   14.69669
       H    15.02676  -18.50695   15.17850
       O    14.23500  -17.99077   15.08562
      H1    13.75557  -18.45155   14.40445
       H     8.38788  -11.22790   11.43438
       O     8.80330  -10.79727   10.65469
      H1     9.19186   -9.95777   10.95118
       H    12.63297  -13.56928   14.74687
       O    11.95800  -13.43660   15.42049
      H1    11.07348  -13.57770   15.01258
       H    12.22045  -11.54342   15.31850
       O    11.99396  -10.60436   15.06006
      H1    11.72287  -10.63842   14.13775
       H    16.73477  -16.60552   13.20370
       O    17.05614  -16.94109   12.34315
      H1    17.97777  -17.21072   12.51385
       H    19.12079  -12.42984   11.23311
       O    18.69189  -12.88299   10.49632
      H1    19.28661  -12.66136    9.81104
       H    10.22737  -15.93034   13.84834
       O    10.77487  -16.71186   13.97257
      H1    10.51326  -17.20234   14.76497
       H    14.56113  -13.11045   17.35327
       O    14.93941  -12.26220   17.11463
      H1    14.40707  -11.68774   17.73006
       H    14.24600  -13.56030   10.19275
       O    14.40828  -12.81855    9.60483
      H1    13.68387  -12.65486    8.95294
       H    14.52862   -8.50536    9.69801
       O    14.94543   -9.27836    9.29604
      H1    14.22083   -9.73673    8.85728
       H    14.63021   -8.82365   14.78284
       O    13.98562   -8.92333   14.05218
      H1    13.42658   -9.64010   14.37455
       H     7.80085  -17.68190   11.25414
       O     8.05069  -16.77821   11.36432
      H1     8.31139  -16.60500   12.26659
       H    18.37813  -13.31373   14.03140
       O    18.65004  -14.10820   13.59294
      H1    17.93548  -14.69950   13.78355
       H    11.09562  -11.15889   12.32593
       O    11.52383  -10.27771   12.50440
      H1    12.48951  -10.41415   12.33522
       H    10.09445  -17.25773    9.01449
       O    10.00562  -17.75499    9.83158
      H1     9.35538  -17.34522   10.36448
       H    10.93133   -9.14724   11.29900
       O    10.26440   -8.53343   10.94410
      H1    10.78475   -7.70011   10.66527
       H    16.24401  -18.73195   12.20808
       O    15.90610  -19.62429   12.31144
      H1    14.97703  -19.51999   12.70598
       H    15.54914  -13.19683    8.26090
       O    16.29609  -13.35098    7.61324
      H1    16.84922  -12.56846    7.70392
       H    14.70950  -13.97376   13.67172
       O    13.85067  -13.50540   13.32354
      H1    14.12823  -12.70420   12.86403
       H    16.81990  -18.46857    9.28478
       O    17.00579  -19.33411    9.61492
      H1    16.15565  -19.63672    9.98025
       H     8.02317  -11.30242   13.52599
       O     8.03941  -12.07453   12.97821
      H1     7.14446  -12.35048   12.86297
       H    12.80459  -15.70094   17.51013
       O    12.01661  -15.63796   16.97292
      H1    12.11710  -14.82055   16.43317
       H    13.66269  -14.99556    8.73160
       O    13.75672  -15.26636    7.82334
      H1    14.60691  -14.97484    7.64444
       H    14.93418  -14.61745   18.85998
       O    14.34411  -15.09147   18.19654
      H1    14.85816  -15.94187   18.19452
       H    10.12849  -18.01481   16.67722
       O    11.09643  -18.23485   16.59419
      H1    11.45640  -17.31464   16.64734
       H    14.40784   -9.88990   12.55838
       O    14.06234  -10.45836   11.86331
      H1    14.50475  -10.19622   11.03112
       H    14.19205  -17.11535    7.97575
       O    14.50180  -18.05823    7.92619
      H1    14.41580  -18.45097    8.81003
       H    13.52536  -16.07947   11.18757
       O    13.68237  -15.17298   10.97959
      H1    13.71472  -14.74073   11.89218
       H    17.85916  -14.68219   10.19580
       O    17.40579  -15.51474   10.05746
      H1    17.33883  -15.82778   10.99821
       H    16.44757  -15.83759   15.69628
       O    15.91412  -15.79827   14.91243
      H1    15.20084  -16.43293   14.93044
       H    17.68186   -8.81409   13.65236
       O    17.13986   -9.59965   13.38477
      H1    17.13593   -9.78326   12.40683
       H    16.74159  -16.50517    8.54999
       O    16.96482  -17.21351    7.86713
      H1    16.07856  -17.56823    7.71941
       H     9.81894  -16.05521    7.14935
       O    10.53089  -16.38681    7.64777
      H1    11.32976  -15.97677    7.46675
       H    17.62337  -11.52869   10.42574
       O    17.31939  -10.57218   10.39403
      H1    16.44220  -10.53220    9.97381
       H    14.64920  -17.95096   17.30303
       O    15.33106  -17.65057   17.92576
      H1    16.04254  -17.12419   17.42416
       H    11.27392  -12.58761    7.93759
       O    12.15929  -12.21547    7.97722
      H1    12.54671  -12.28458    7.06067
       H    10.56395   -9.51857    9.13552
       O    10.64186   -9.78106    8.21207
      H1    11.47579  -10.28326    8.19973
       H    10.51771  -19.88135   13.68445
       O    10.01192  -19.38692   13.01652
      H1    10.27034  -18.47927   13.07740

