126
frame 4 | Written by MDAnalysis XYZWriter (release 2.4.3)
       H    18.71716    3.67064   -6.17345
       O    19.27833    3.38347   -5.48398
      H1    19.58665    2.49423   -5.69223
       H    19.40075    5.04112  -10.23581
       O    19.87452    5.81268   -9.94620
      H1    19.23761    6.49185  -10.29393
       H    15.65428   -1.40435  -17.06798
       O    15.43397   -0.55844  -16.69928
      H1    15.91715   -0.47824  -15.88828
       H    12.74223    0.54190  -17.26253
       O    13.21400    0.77290  -16.39874
      H1    14.03787    0.26281  -16.52684
       H    12.09552   -0.05201  -10.68106
       O    11.74368   -0.29554   -9.80260
      H1    10.85517   -0.71143   -9.94745
       H    12.50290    0.61935   -6.80336
       O    12.98614   -0.15917   -7.25425
      H1    12.53282   -0.42839   -8.09642
       H    13.19453    4.75798  -13.05247
       O    13.45236    4.32302  -12.24944
      H1    12.91176    4.88557  -11.68987
       H    17.05092   -5.19105  -14.32392
       O    16.54803   -6.05546  -14.26814
      H1    15.80381   -5.85736  -13.72074
       H    14.68073   -5.01301  -15.39706
       O    14.52040   -5.05383  -16.31984
      H1    13.54408   -4.96618  -16.30288
       H    17.78355   -0.39306  -15.54756
       O    17.31951    0.16734  -14.92147
      H1    17.10200    0.94157  -15.46154
       H    13.84504   -2.35491  -14.82197
       O    13.19418   -2.23145  -15.49762
      H1    13.08408   -1.30356  -15.72610
       H    14.80611   -2.19130  -11.93381
       O    14.40783   -2.14980  -11.06843
      H1    13.41681   -2.36088  -11.27788
       H    19.17310   -7.17179  -11.91249
       O    19.27833   -6.18961  -11.75280
      H1    18.42034   -5.96234  -11.36480
       H    16.83377   -5.54476   -7.14458
       O    15.96340   -5.68831   -6.68851
      H1    15.46642   -4.91775   -7.08210
       H    19.11919   -3.72319  -16.11355
       O    19.63024   -3.42694  -16.78196
      H1    19.36542   -2.47071  -16.88010
       H    18.03574   -2.53453  -11.40859
       O    17.97092   -3.42396  -10.99089
      H1    17.15796   -3.38254  -10.48653
       H    18.21722    2.99728  -11.03576
       O    17.92051    3.64330  -10.41057
      H1    17.16384    4.10445  -10.75968
       H    18.75992   -4.16571   -7.58442
       O    18.51317   -5.09923   -7.60280
      H1    19.19677   -5.54763   -7.05888
       H    17.52125    5.89837  -12.75098
       O    18.20642    6.52075  -12.92359
      H1    18.99244    5.99564  -13.16425
       H    16.78819   -1.40943   -9.07792
       O    16.34064   -0.85589   -9.70999
      H1    15.55961   -1.35349  -10.00050
       H    19.47551   -0.02586  -16.43763
       O    18.95368   -0.70237  -16.87755
      H1    18.81868   -0.35669  -17.76698
       H    18.03593    4.96340  -15.72567
       O    18.43146    4.09949  -15.49995
      H1    17.76138    3.38545  -15.61330
       H    15.12166    1.68156  -13.76961
       O    14.75502    0.85109  -13.43941
      H1    13.79462    0.82452  -13.60486
       H    12.00584   -4.80602   -9.30166
       O    12.45963   -4.03318   -9.68703
      H1    13.26469   -3.80356   -9.10745
       H    17.55279   -0.21760  -18.46643
       O    17.75923   -0.53522  -19.34025
      H1    17.79774   -1.52805  -19.24634
       H    16.43623    3.33099  -13.96356
       O    15.74344    3.07070  -14.58169
      H1    14.94964    3.57906  -14.60010
       H    15.88708   -7.04713  -10.59149
       O    15.07408   -6.63547  -10.25803
      H1    14.46530   -7.32573  -10.04610
       H    16.41328    0.28348   -5.83219
       O    16.76649    0.14711   -4.94016
      H1    15.88179   -0.08360   -4.55111
       H    18.09743   -6.33615   -8.51335
       O    18.09214   -6.97528   -9.21545
      H1    18.87428   -6.68901   -9.68096
       H    14.54193   -5.69287  -11.65647
       O    14.24552   -5.52154  -12.54517
      H1    13.90602   -4.59163  -12.54845
       H    18.31787   -2.76572  -14.05608
       O    17.54321   -3.37932  -14.08871
      H1    17.52394   -3.72044  -13.20735
       H    13.86252    3.03671   -8.66612
       O    14.63234    3.22211   -8.18108
      H1    15.13104    2.35951   -8.20074
       H    16.06659    4.14395   -7.88412
       O    17.03600    4.40238   -7.78923
      H1    17.44247    4.07493   -8.61876
       H    15.87854    0.20736   -8.34030
       O    15.56810    0.80270   -7.60329
      H1    14.63555    0.47247   -7.53296
       H    18.49359    0.28650  -12.06134
       O    18.37304   -0.60220  -11.73483
      H1    17.85386   -0.52471  -10.92981
       H    16.12681   -2.30590  -14.03341
       O    15.29645   -2.09061  -13.66858
      H1    15.20659   -1.12096  -13.85968
       H    15.72886    6.17818  -12.03848
       O    16.02344    5.26948  -11.96373
      H1    15.22274    4.77585  -12.05511
       H    12.15661    1.97652  -14.60882
       O    12.13853    1.38813  -13.81343
      H1    11.75622    1.98417  -13.18035
       H    17.26657   -2.25742   -6.51262
       O    17.34327   -2.34447   -7.52492
      H1    16.90167   -3.15119   -7.78254
       H    15.23471   -4.97441   -9.39767
       O    15.56204   -4.03956   -9.32624
      H1    15.04894   -3.58006  -10.03472
       H    18.18476    2.30395  -17.87860
       O    17.51759    1.84907  -17.34528
      H1    16.61797    2.24184  -17.45158
       H    17.85546    1.20242  -13.52098
       O    18.55876    1.68818  -13.03544
      H1    19.34922    1.61287  -13.61180

