126
frame 5 | Written by MDAnalysis XYZWriter (release 2.4.3)
       H     0.48890  -19.08472  -16.59151
       O     1.34272  -18.77030  -16.44176
      H1     1.72852  -19.28713  -15.73777
       H     0.61111  -10.04461  -11.34687
       O     0.97706   -9.47538  -12.01961
      H1     0.63489   -9.69324  -12.93025
       H     5.81773  -16.36295  -16.60081
       O     5.75940  -15.79876  -15.79870
      H1     6.57830  -15.93329  -15.36081
       H     6.76700  -13.75246  -11.80329
       O     5.95361  -13.61429  -12.32015
      H1     5.70659  -12.66873  -12.20522
       H    -2.97012  -17.39190  -13.72828
       O    -2.52870  -16.53890  -13.89439
      H1    -1.86854  -16.41995  -13.22340
       H     4.02777  -17.00217  -18.19173
       O     4.90427  -17.41926  -18.00415
      H1     4.68950  -17.98265  -17.21222
       H    -1.97604  -11.39668  -16.75410
       O    -1.83719  -12.29372  -16.42890
      H1    -1.19628  -12.70486  -16.98811
       H     4.34887  -13.11593  -14.59128
       O     4.08698  -13.67589  -15.35837
      H1     4.54067  -14.52535  -15.18242
       H     2.14800   -4.35472  -19.28466
       O     2.33309   -5.05941  -18.67126
      H1     3.10717   -5.44613  -19.06287
       H     9.73247  -13.31181  -17.66920
       O     9.41603  -12.60125  -18.26871
      H1     8.48271  -12.70711  -18.35262
       H     0.42316  -15.90953  -12.65191
       O    -0.26172  -16.58773  -12.45660
      H1     0.13145  -16.93503  -11.59850
       H    -2.58752  -12.84551  -19.00463
       O    -3.37298  -12.41155  -19.28987
      H1    -3.44690  -12.37408  -20.24917
       H     8.16898  -10.66050  -13.64847
       O     8.77497  -11.07329  -14.29374
      H1     8.22658  -10.95990  -15.08507
       H    -1.53745  -14.90629  -18.03138
       O    -1.06052  -14.10672  -18.41926
      H1    -0.54135  -14.61374  -19.13256
       H     3.48320  -11.06718  -15.70653
       O     2.84056  -10.33302  -15.61615
      H1     3.36360   -9.60700  -15.28952
       H     1.96692  -15.79317  -14.72759
       O     2.53061  -16.11713  -15.44599
      H1     2.19492  -16.94938  -15.83180
       H     3.20048  -15.66622  -17.31099
       O     2.85623  -15.75358  -18.19014
      H1     3.36269  -15.07280  -18.69839
       H    -3.08944  -13.63453  -16.50006
       O    -3.80654  -14.27871  -16.51182
      H1    -3.44933  -15.12927  -16.83569
       H     2.42767  -13.94014  -16.18719
       O     1.59169  -13.56820  -16.59755
      H1     1.24686  -14.35343  -17.03366
       H    -3.10815   -9.68143  -17.24371
       O    -2.30071   -9.57185  -16.73594
      H1    -2.51766   -9.50563  -15.81128
       H     1.61860  -14.70162  -12.07396
       O     1.61405  -14.75907  -13.02817
      H1     0.97161  -14.10131  -13.37980
       H    -1.58374   -7.27326  -15.44065
       O    -1.26742   -7.45886  -14.54941
      H1    -0.72008   -8.26206  -14.64046
       H    -4.54332   -9.34030  -14.74154
       O    -3.65506   -9.25403  -14.43491
      H1    -3.54462   -8.39124  -13.96933
       H    -3.96173  -10.65338  -18.95025
       O    -4.01445   -9.69581  -18.76799
      H1    -4.37300   -9.30854  -19.57963
       H     4.30145  -18.25740  -14.15182
       O     3.74537  -17.69240  -13.62075
      H1     3.28504  -17.03231  -14.23531
       H     5.85017   -7.93110  -15.74952
       O     6.51953   -7.83927  -16.45723
      H1     6.35245   -7.02397  -17.02114
       H     5.25832   -8.92222  -17.99619
       O     4.69069   -9.12768  -18.75325
      H1     5.23061   -9.47451  -19.48573
       H     3.77366  -13.02694  -18.39479
       O     4.59402  -13.47963  -18.14704
      H1     4.59148  -13.56641  -17.20690
       H     4.49320  -16.35279  -12.53840
       O     4.64773  -15.86541  -11.74152
      H1     5.19604  -15.08344  -12.05979
       H     1.75771  -12.53859  -17.99170
       O     2.22231  -12.23861  -18.84229
      H1     1.97025  -11.30250  -19.00526
       H     4.92931  -10.28536  -12.15717
       O     4.85933  -11.12969  -12.49971
      H1     3.91048  -11.36956  -12.42402
       H    -1.62277  -17.30418  -17.09931
       O    -1.92053  -16.39531  -16.86482
      H1    -1.97718  -16.40357  -15.89153
       H     7.63570   -9.72393  -16.67524
       O     7.82072  -10.63797  -16.78152
      H1     8.55280  -10.71444  -17.42846
       H     4.21630   -7.45808  -14.33677
       O     4.67912   -8.21794  -14.56611
      H1     5.05500   -8.57086  -13.71278
       H    -5.95560  -14.31797  -18.27984
       O    -6.05654  -13.37041  -18.48176
      H1    -5.17500  -13.02280  -18.21957
       H     7.11252  -11.33081  -18.10966
       O     6.91464  -11.98459  -18.82417
      H1     6.15370  -12.46828  -18.51817
       H    -0.23823   -6.48780  -19.31757
       O    -0.32965   -5.71041  -18.75122
      H1     0.53519   -5.27754  -18.73628
       H    -0.92216  -12.89280  -14.74027
       O    -0.40886  -12.75840  -13.91630
      H1    -1.07572  -12.65149  -13.23126
       H    -2.24336   -7.88739  -17.20293
       O    -2.10784   -6.96359  -16.99273
      H1    -1.36763   -6.68612  -17.53262
       H     8.41193  -16.47402  -18.45720
       O     8.05423  -15.76706  -17.86178
      H1     7.44484  -15.25792  -18.43001
       H     0.10241  -10.90480  -14.77088
       O     0.14993   -9.94736  -14.75873
      H1     0.88228   -9.74380  -15.32442
       H     2.14730  -12.12553  -13.00774
       O     2.29425  -11.67106  -12.15302
      H1     1.84420  -10.76710  -12.17110

