126
frame 0 | Written by MDAnalysis XYZWriter (release 2.4.3)
       H    17.41082  -11.03003  -16.76850
       O    18.20588  -11.35105  -16.38638
      H1    18.64027  -10.65868  -15.80820
       H    16.61298   -6.99065  -19.55786
       O    17.27551   -7.42319  -18.98276
      H1    16.80389   -7.55248  -18.12658
       H     9.23847  -16.04309  -17.63949
       O    10.00537  -15.47277  -17.53874
      H1     9.68565  -14.62146  -17.89993
       H    14.04359  -17.57453  -16.18017
       O    13.20759  -17.17373  -15.97390
      H1    12.78264  -17.66464  -15.20281
       H    10.82119  -16.67791  -14.31199
       O    10.99496  -17.49335  -13.92513
      H1    10.93709  -17.31098  -12.95972
       H    15.93054  -14.05180  -15.60417
       O    15.97551  -13.16268  -15.97501
      H1    16.79375  -12.75110  -15.65961
       H    10.69586  -12.47802  -17.89930
       O    10.09038  -13.00248  -18.54404
      H1     9.23520  -12.60467  -18.32374
       H    14.37968  -15.90484  -15.10436
       O    15.03628  -15.38293  -14.61930
      H1    15.57895  -16.09137  -14.14820
       H    18.87331  -12.56222  -15.18552
       O    19.14648  -13.40414  -14.78883
      H1    19.98701  -13.17748  -14.39509
       H     8.72953  -11.28885  -14.07678
       O     9.17966  -11.30573  -14.98991
      H1     8.90348  -10.48265  -15.41608
       H    13.49716  -13.02051  -10.92404
       O    13.28041  -12.21569  -10.43901
      H1    14.13395  -11.71955  -10.40793
       H    14.26424   -6.20127  -18.64578
       O    14.63432   -6.72005  -19.40433
      H1    14.97854   -6.00054  -19.95630
       H    14.05289  -14.37232  -12.56731
       O    13.87622  -14.55376  -11.61490
      H1    14.71714  -14.39422  -11.16986
       H    11.67139   -8.55528  -16.95175
       O    12.31828   -9.29802  -17.05953
      H1    12.57472   -9.23254  -18.00150
       H    17.91532  -14.82566  -19.28935
       O    18.81118  -14.52030  -19.37085
      H1    18.83435  -13.57558  -19.46946
       H    15.88821  -13.72188  -18.32455
       O    15.85916  -14.49954  -18.86855
      H1    15.52703  -15.17633  -18.27529
       H    15.09145  -11.42314  -18.47685
       O    15.99730  -11.15449  -18.40728
      H1    16.23723  -10.49606  -19.10489
       H    13.02004  -19.59592  -11.36478
       O    12.24928  -19.58884  -11.96439
      H1    12.71015  -19.55667  -12.81347
       H    11.55611  -16.01643  -18.21621
       O    12.31610  -16.42565  -18.67882
      H1    12.68196  -16.99828  -17.98697
       H    18.34782  -17.16197  -17.59210
       O    17.98693  -18.02882  -17.89334
      H1    18.15021  -18.59978  -17.10419
       H    11.86905  -11.51648  -11.27844
       O    11.14342  -10.96731  -11.54873
      H1    11.48241  -10.34723  -12.19931
       H    14.81138  -10.03885  -14.88958
       O    14.76048  -10.35942  -13.95997
      H1    14.39339  -11.22631  -14.12549
       H    12.64926  -12.63083  -14.78351
       O    13.56846  -12.63968  -14.33514
      H1    14.16596  -12.93399  -15.03470
       H     9.34298  -18.35245  -19.78869
       O     8.59013  -18.33645  -19.19825
      H1     7.84074  -18.44123  -19.83849
       H    12.77502   -8.53348  -12.36763
       O    12.39865   -8.96832  -13.15315
      H1    13.24732   -9.34747  -13.50183
       H     9.94423  -14.03966  -14.36540
       O    10.15090  -14.87825  -14.72269
      H1    10.12985  -14.73225  -15.72614
       H    18.78216  -14.64720  -16.18037
       O    18.72743  -15.39509  -16.82918
      H1    18.70835  -14.90084  -17.70056
       H     8.13727  -10.93228  -17.83520
       O     7.81427  -11.75671  -18.26293
      H1     7.22378  -12.20122  -17.63935
       H    13.99363   -8.78340  -16.50925
       O    14.78691   -8.68858  -16.09410
      H1    15.16337   -7.79446  -16.23387
       H    16.39558   -6.03404  -15.39685
       O    16.41814   -6.42142  -16.28530
      H1    17.34151   -6.74716  -16.23053
       H    12.10209  -15.36974  -11.95885
       O    11.18516  -15.56529  -11.68096
      H1    10.66383  -15.43692  -12.47369
       H     9.39436  -13.95931  -12.08673
       O     9.23102  -13.01973  -12.30052
      H1    10.05318  -12.55873  -12.10796
       H    17.95876  -13.58326  -11.73985
       O    17.60719  -13.14112  -12.52285
      H1    17.99235  -13.56284  -13.27517
       H    18.88458  -11.81828  -18.20686
       O    18.94513  -11.74252  -19.15033
      H1    19.86401  -11.74957  -19.33427
       H    10.67090  -11.78017  -15.80485
       O    11.42491  -11.94739  -16.38982
      H1    11.84446  -11.10344  -16.44206
       H    16.13353  -18.34512  -12.36648
       O    15.33419  -18.01806  -12.84403
      H1    15.40105  -18.49839  -13.67054
       H    16.59076  -17.31181  -17.47774
       O    15.64900  -17.10539  -17.34845
      H1    15.30204  -17.82093  -17.89296
       H     7.54947  -16.70146  -18.35096
       O     6.93706  -16.22346  -17.78855
      H1     6.30798  -15.89877  -18.44233
       H    17.09068  -11.48050  -12.17620
       O    16.93369  -10.52491  -11.96175
      H1    16.19263  -10.38202  -12.58815
       H    19.43892   -6.54269  -16.07567
       O    19.03502   -7.39653  -16.23964
      H1    19.45269   -7.85514  -17.02123
       H    18.22412  -18.53589  -10.91188
       O    17.47689  -19.02096  -11.28162
      H1    17.02162  -19.34199  -10.49490
       H    14.42892  -16.17651  -10.11540
       O    13.98888  -16.98762  -10.44071
      H1    14.09951  -17.01438  -11.35052

