126
frame 10 | Written by MDAnalysis XYZWriter (release 2.4.3)
       H    -1.83038    2.17601    1.52820
       O    -1.76452    3.08492    1.15270
      H1    -1.88245    3.02852    0.22213
       H    -6.44372   -4.63519    5.91773
       O    -7.19888   -4.36568    5.36890
      H1    -7.07896   -3.48504    5.00826
       H    -8.88433   -2.23187    2.01079
       O    -8.05553   -1.77625    1.95715
      H1    -8.16086   -0.92820    2.38770
       H    -3.93664   -2.00142   -1.99505
       O    -3.39581   -2.42535   -2.63609
      H1    -2.49255   -1.98119   -2.59738
       H    -6.10582   -1.13956    6.29765
       O    -5.28366   -1.11593    5.74894
      H1    -4.65152   -0.71455    6.31508
       H    -0.33118   -2.44791    2.89984
       O     0.39594   -2.86730    3.49916
      H1     0.87426   -2.08059    3.72520
       H    -9.37186   -4.48081    7.43620
       O    -9.02440   -3.58728    7.25847
      H1    -8.39901   -3.86915    6.54702
       H   -10.64763    0.59738    2.93122
       O   -10.55564    1.33327    2.29725
      H1   -10.74532    0.86110    1.47088
       H    -2.37366    2.59756    4.75124
       O    -3.21291    3.03036    5.01376
      H1    -3.75978    2.68124    4.30777
       H   -11.46218   -1.15688    4.17936
       O   -10.64751   -0.84627    3.76214
      H1   -10.17457   -0.48505    4.54925
       H     0.34027   -3.71896    7.03244
       O    -0.45027   -3.18491    7.02326
      H1    -0.25873   -2.24763    6.81124
       H    -7.66852   -3.16156    8.69473
       O    -7.35671   -3.49673    9.51313
      H1    -6.76242   -4.19128    9.15988
       H    -5.43136   -7.48749    4.85771
       O    -4.59157   -7.02618    5.05968
      H1    -4.63940   -6.20437    4.56303
       H    -8.02348   -7.32420    0.04125
       O    -8.61961   -6.68866    0.45612
      H1    -8.22430   -6.39754    1.32004
       H    -5.27989    2.11893    2.19323
       O    -5.40841    1.92914    3.11207
      H1    -6.22763    1.33733    3.14124
       H    -5.03464   -2.02786    4.00766
       O    -5.41444   -2.58106    3.29307
      H1    -6.28530   -2.21525    3.08194
       H    -6.04843    0.81145    5.70742
       O    -6.77529    1.26920    6.19066
      H1    -6.49596    2.15388    6.09519
       H    -9.76737    1.07720    6.30522
       O    -9.86713    0.09640    6.29603
      H1   -10.59634   -0.16059    6.91566
       H    -5.36402   -0.28329   -1.19387
       O    -5.51235   -1.18684   -0.99229
      H1    -6.50023   -1.32736   -1.01991
       H    -3.52899   -5.13776   -0.57684
       O    -4.09953   -5.29512    0.22700
      H1    -4.12298   -4.37447    0.51833
       H    -8.21825    0.67866    4.51569
       O    -8.10653    0.57535    3.51803
      H1    -8.86094    1.03518    3.10961
       H   -10.59864   -3.62922    1.23800
       O   -10.73313   -2.68589    1.11200
      H1   -11.39408   -2.48650    1.79954
       H    -3.76582    0.99096    7.95244
       O    -3.83707    0.08416    7.66770
      H1    -4.07947   -0.44033    8.45102
       H    -5.12667   -5.38814    8.41394
       O    -5.34917   -5.19969    9.35956
      H1    -5.71396   -6.06403    9.68420
       H    -7.99885   -2.90779   -1.30810
       O    -7.98252   -1.94662   -0.96856
      H1    -8.18198   -2.17816   -0.03325
       H    -2.42178   -2.60847    6.47842
       O    -3.11028   -2.75470    5.89348
      H1    -3.78668   -2.07691    5.91307
       H    -6.62488   -5.95286    2.93841
       O    -7.60473   -6.00534    2.91073
      H1    -8.01598   -5.50554    3.62286
       H    -0.84049   -3.95270    4.54018
       O    -1.36982   -4.72956    4.70445
      H1    -2.19036   -4.42989    5.04901
       H    -1.96348   -7.21657    3.18360
       O    -2.58512   -7.87021    3.43320
      H1    -3.39045   -7.58547    3.82661
       H    -1.09367   -4.76647   -1.07125
       O    -2.02189   -4.69867   -1.41806
      H1    -2.05319   -3.81126   -1.81444
       H    -7.17819   -0.06609    7.20976
       O    -7.34354   -0.87239    7.73917
      H1    -8.17116   -1.24609    7.41732
       H    -2.10252   -2.68068    0.78567
       O    -1.21684   -2.42446    1.07506
      H1    -0.73589   -3.27785    1.19590
       H    -4.19292   -4.29036    6.62878
       O    -4.84069   -4.94180    6.74306
      H1    -4.51368   -5.78367    6.47841
       H    -0.73428   -0.20226    1.74866
       O    -1.42639    0.29749    2.29336
      H1    -1.15854    0.44717    3.20923
       H    -8.17312   -5.24617   -2.19876
       O    -7.86430   -4.78045   -1.36655
      H1    -8.27392   -5.20941   -0.60994
       H    -5.12260   -9.17275    1.96082
       O    -5.85984   -8.60074    1.74235
      H1    -5.72987   -8.28634    0.85766
       H    -3.98220   -2.27644    1.57385
       O    -4.01872   -2.50212    0.66693
      H1    -4.74026   -2.12561    0.18289
       H    -0.43799   -5.76160    3.35943
       O    -0.25211   -6.32371    2.58090
      H1     0.70175   -6.43346    2.53813
       H    -0.45447   -1.12460    0.26525
       O     0.07856   -0.46021   -0.19574
      H1    -0.54025    0.11453   -0.58759
       H    -4.99159    1.54409   -2.22308
       O    -4.64248    1.20955   -1.43606
      H1    -4.73947    1.91904   -0.75713
       H    -8.61305   -0.08788   -0.91174
       O    -9.27182    0.60964   -0.87665
      H1    -8.86005    1.43815   -0.66418
       H    -4.47879   -5.41665    2.26044
       O    -4.74706   -5.12144    3.15039
      H1    -5.04597   -4.23971    3.00327

