126
frame 9 | Written by MDAnalysis XYZWriter (release 2.4.3)
       H    -5.95182    9.83014  -17.89235
       O    -6.86186    9.98222  -18.23070
      H1    -7.00657   10.93383  -18.37710
       H    -4.43211    5.37126  -17.29652
       O    -4.86315    5.70191  -16.49813
      H1    -4.30849    5.53340  -15.69832
       H    -3.45316   14.04584  -10.55764
       O    -3.42946   13.06415  -10.43220
      H1    -3.93176   12.69302  -11.16613
       H    -4.55489   15.32511  -14.13718
       O    -4.16977   14.73306  -14.81723
      H1    -4.00557   15.34737  -15.55777
       H     0.89170   12.48764  -12.02973
       O     0.10268   12.68723  -11.56564
      H1    -0.47490   11.93618  -11.58498
       H     1.33592   14.21727  -13.22856
       O     1.94778   13.50855  -13.48542
      H1     1.57627   13.11671  -14.31547
       H     0.65261    6.82336  -14.24902
       O     0.03869    7.13219  -13.55885
      H1    -0.32563    6.38999  -13.11852
       H    -2.97611    6.96728  -11.29743
       O    -3.69383    6.42246  -10.96628
      H1    -4.28903    6.26282  -11.73330
       H    -4.76835   13.19336  -15.31768
       O    -5.00775   12.39602  -15.80225
      H1    -4.91916   11.64686  -15.22219
       H    -4.65852    7.67499  -17.32425
       O    -4.65401    8.51812  -17.81103
      H1    -4.15316    9.28470  -17.38712
       H    -2.14486   13.19094  -13.98861
       O    -1.40607   13.79652  -13.71093
      H1    -1.09748   13.34884  -12.92277
       H    -5.81795    6.29354  -13.27896
       O    -5.24526    5.63537  -12.84122
      H1    -4.60891    5.31904  -13.52022
       H    -1.99602    7.36964  -15.84731
       O    -2.52296    7.36266  -14.99338
      H1    -3.45050    7.73270  -15.04218
       H     1.64016    9.19984  -10.61620
       O     1.73430    8.70852  -11.41297
      H1     0.85590    8.61942  -11.85244
       H    -1.47189   10.83896  -15.03179
       O    -1.16715   11.29154  -15.80037
      H1    -2.02236   11.23272  -16.37145
       H    -6.18465   11.51936   -8.48580
       O    -5.31499   11.91513   -8.11902
      H1    -4.82846   12.28856   -8.87132
       H     2.74767    7.00458  -11.92302
       O     3.19809    6.34543  -12.42461
      H1     2.73519    6.39994  -13.27760
       H    -5.10494   11.23370  -12.94007
       O    -4.83136   11.87418  -12.28035
      H1    -5.42667   12.63449  -12.54773
       H    -1.38518    9.83198  -10.31714
       O    -1.77410   10.38715  -11.04299
      H1    -2.32423   11.07799  -10.53156
       H     3.16104    6.75878  -15.33691
       O     2.29572    6.29336  -15.27312
      H1     2.26188    5.41203  -15.71890
       H    -0.14440   12.88922  -19.40776
       O     0.29007   13.56786  -18.87930
      H1    -0.33383   13.78527  -18.17823
       H    -0.90442   11.52379   -8.19955
       O    -0.37254   10.73835   -8.31757
      H1     0.49983   10.98772   -8.59900
       H     0.63036    8.59544  -16.28043
       O     0.89291    7.96471  -16.93991
      H1     1.32239    7.21534  -16.47798
       H     2.28878    9.48530  -17.64972
       O     2.95771    9.67116  -18.35433
      H1     3.76036    9.52721  -17.86075
       H    -0.49743    7.84820   -8.91413
       O    -1.36063    8.19039   -9.31878
      H1    -1.81705    8.73479   -8.64261
       H    -2.11174    3.73911  -10.88304
       O    -1.67289    4.58633  -10.71679
      H1    -2.54123    5.09098  -10.85460
       H    -2.41547    5.22364  -14.69926
       O    -3.13215    4.58940  -14.58285
      H1    -2.98785    3.94208  -15.28687
       H    -1.19497   14.50609  -16.05014
       O    -1.13283   14.80794  -16.95781
      H1    -2.00883   14.84905  -17.33860
       H     0.78229   13.25833   -9.90768
       O     1.46100   13.36075   -9.16996
      H1     2.06548   14.00412   -9.55314
       H    -6.61358    8.37744  -12.98133
       O    -6.16827    7.98756  -13.78793
      H1    -6.93291    8.01953  -14.41915
       H    -4.31157    7.96614   -9.87400
       O    -4.91256    8.39717   -9.19596
      H1    -4.33463    8.90949   -8.56220
       H    -2.30168    6.42348  -18.27449
       O    -1.79829    6.95061  -17.66227
      H1    -0.88148    6.77764  -17.92512
       H     1.72351   12.13556  -16.28414
       O     1.40267   11.91265  -15.36258
      H1     0.47113   11.84402  -15.56129
       H    -6.44627    9.27959   -9.50187
       O    -7.35921    9.66387   -9.42884
      H1    -7.81873    9.25060   -8.71170
       H    -3.37525    9.68582  -14.04378
       O    -4.29171    9.88319  -14.40202
      H1    -4.86192    9.13351  -14.14546
       H    -2.18001   15.17881  -12.78465
       O    -2.65643   15.72872  -12.12405
      H1    -2.02369   15.74964  -11.33463
       H    -1.25612    8.79802  -13.72777
       O    -1.58895    9.65909  -13.54686
      H1    -1.43572    9.79428  -12.59934
       H     2.37149   10.83504  -14.06615
       O     2.65733    9.99161  -13.74604
      H1     2.19379    9.75249  -12.89216
       H     2.44036   10.53058   -7.98086
       O     2.65333   10.58872   -8.92820
      H1     2.49132   11.49750   -9.18242
       H    -2.42161   13.32215   -8.85546
       O    -1.69657   13.09383   -8.22020
      H1    -1.89318   13.71728   -7.48488
       H     5.15474    8.54863  -15.59716
       O     4.30183    8.31572  -15.32871
      H1     3.79871    9.09460  -14.96611
       H    -3.50196   10.82686  -18.20814
       O    -3.47871   10.87698  -17.24076
      H1    -4.11148   11.62141  -17.01409

