126
frame 2 | Written by MDAnalysis XYZWriter (release 2.4.3)
       H   -14.93123   -5.75828   10.02260
       O   -15.87593   -6.01587   10.18879
      H1   -16.36393   -5.26374    9.84217
       H   -17.11967   -4.79915   13.23553
       O   -16.40026   -4.34604   13.65898
      H1   -16.67898   -3.86402   14.45915
       H   -19.45823   -5.49914   12.11218
       O   -18.95535   -4.66923   12.42198
      H1   -19.53803   -3.92722   12.36122
       H   -14.60717   -0.27621   15.13207
       O   -13.65909   -0.48734   15.08884
      H1   -13.54454   -0.82319   14.20435
       H   -14.52764   -7.79629    8.48773
       O   -15.23239   -8.26871    8.94098
      H1   -15.70711   -7.63384    9.43553
       H   -16.58161   -2.82975   12.46249
       O   -16.89509   -1.96069   12.12955
      H1   -17.81608   -1.80557   12.42690
       H   -17.36022   -7.40734   10.94260
       O   -17.75585   -8.28174   10.88912
      H1   -18.69608   -8.12658   10.63900
       H   -11.44028  -10.18069   10.60223
       O   -10.65515  -10.51729   11.14755
      H1   -10.90742  -11.32373   11.66103
       H   -10.91841   -4.42139    2.95019
       O   -10.76125   -3.81645    3.67995
      H1   -10.11868   -3.14134    3.37728
       H   -12.06857   -5.59993    9.79392
       O   -11.38853   -6.24828    9.97792
      H1   -10.79923   -6.22360    9.22178
       H   -17.20176   -9.27920    6.39230
       O   -16.74736   -9.77886    7.10060
      H1   -16.36728   -9.17479    7.79406
       H   -14.15337   -3.99490    9.44644
       O   -13.58985   -4.79758    9.25734
      H1   -13.98385   -5.02836    8.39483
       H   -15.45288    1.24577   12.28024
       O   -16.04105    0.75562   12.78258
      H1   -16.01678   -0.10362   12.28626
       H   -16.90031    0.84476    9.30036
       O   -16.73489    0.29832   10.04872
      H1   -16.67978   -0.63050    9.75108
       H   -11.90580   -2.27471    4.43453
       O   -12.14571   -1.39826    4.46747
      H1   -13.00747   -1.57493    4.80877
       H    -9.00867   -4.76111   12.62718
       O    -8.72183   -4.07228   12.04432
      H1    -8.56565   -4.44901   11.19417
       H    -8.96709   -2.27108    6.30427
       O    -9.64587   -1.60017    6.48040
      H1   -10.20469   -1.70389    5.68702
       H   -14.40264    1.14391   10.13826
       O   -13.92601    1.40894    9.34772
      H1   -13.94448    0.59746    8.77553
       H   -14.91123   -4.38295    3.16957
       O   -15.26040   -3.91639    2.39167
      H1   -14.78481   -4.07789    1.56840
       H   -12.20837   -6.99024   11.51694
       O   -12.73061   -7.38796   12.24973
      H1   -13.06351   -6.64870   12.70220
       H   -14.24425   -5.64173    4.68966
       O   -14.82465   -4.93422    4.89082
      H1   -14.29216   -4.29007    5.42952
       H   -13.18860   -8.73505   11.22995
       O   -13.22869   -9.36505   10.52853
      H1   -14.02360   -9.11970   10.04944
       H   -17.17620   -1.18946    7.99363
       O   -16.49091   -1.74522    8.36433
      H1   -15.66324   -1.24022    8.33990
       H   -13.11256   -1.21302    8.21523
       O   -13.61190   -0.49911    7.65647
      H1   -12.89858   -0.03781    7.19770
       H   -10.65153   -5.23695    5.01573
       O   -10.43608   -6.12381    5.34538
      H1   -10.04111   -6.54503    4.59351
       H   -13.92521   -2.06778   11.22191
       O   -14.51740   -2.13029   10.44895
      H1   -15.38002   -2.05012   10.88940
       H    -8.12648   -3.51966    9.30116
       O    -8.03417   -4.49366    9.19826
      H1    -7.08431   -4.63263    9.05464
       H   -12.36267   -7.40878    8.22790
       O   -13.09885   -7.09941    7.66187
      H1   -12.85786   -7.22063    6.79433
       H   -17.17638   -3.37777    4.61087
       O   -17.60383   -3.09884    3.77674
      H1   -16.97931   -3.37587    3.06323
       H   -13.38742   -3.15308   13.28833
       O   -13.18239   -2.25776   12.98779
      H1   -12.29289   -2.32341   12.73479
       H   -18.39884   -4.37726    9.66056
       O   -17.66648   -4.43287    9.03407
      H1   -17.51872   -3.50198    8.90462
       H   -11.87326   -6.68302    4.62763
       O   -12.82884   -6.85976    4.47606
      H1   -12.87419   -7.34991    3.61767
       H   -10.63504   -7.04813   12.70252
       O    -9.99065   -6.36368   12.46592
      H1   -10.42486   -5.93321   11.71762
       H   -15.08692  -10.23397    6.80232
       O   -14.17229  -10.69326    6.77325
      H1   -13.44500  -10.09965    6.72145
       H    -9.90571   -2.61297   11.48026
       O   -10.54367   -1.94818   11.04059
      H1   -10.02044   -1.17415   11.14815
       H    -8.97579   -7.87606    8.27303
       O    -9.83894   -7.51143    8.00506
      H1    -9.77284   -7.05637    7.12383
       H   -16.46932   -5.66556    5.62424
       O   -17.41635   -5.92331    5.49188
      H1   -17.39504   -6.68269    6.09338
       H   -12.70303   -5.03058    7.08510
       O   -12.53836   -4.24603    6.57905
      H1   -12.07966   -3.59978    7.14876
       H   -18.91879   -5.23404    6.35959
       O   -19.85723   -5.44611    6.58044
      H1   -20.34149   -5.58269    5.72867
       H   -15.63969   -1.11467    5.72714
       O   -14.81639   -1.58063    5.64191
      H1   -14.34534   -1.26298    6.43621
       H   -13.93658   -4.78883   14.46561
       O   -13.77291   -4.87208   13.48178
      H1   -14.69763   -4.90578   13.08874
       H   -11.43987   -2.14842    9.29244
       O   -11.58436   -2.27984    8.35154
      H1   -10.80593   -1.83674    7.94220

