126
frame 1 | Written by MDAnalysis XYZWriter (release 2.4.3)
       H   -17.70786   12.14540  -11.14600
       O   -17.93018   11.31228  -11.55376
      H1   -18.32108   10.69475  -10.88984
       H   -19.69592    1.63238   -9.86840
       O   -19.13512    2.21076   -9.31141
      H1   -19.83630    2.78427   -8.98185
       H   -17.16904   -1.27878  -11.13651
       O   -16.56447   -1.08097  -11.91575
      H1   -16.68617   -1.82070  -12.48372
       H   -17.33124    0.66723  -12.68092
       O   -17.86364    1.43348  -12.85625
      H1   -18.11008    1.35076  -13.80404
       H   -14.78073   -0.13439  -12.17384
       O   -14.20470    0.51320  -12.57651
      H1   -14.36040    0.28253  -13.51905
       H   -17.36012    4.72521  -10.71531
       O   -18.29509    4.38965  -10.61610
      H1   -18.30169    3.64145  -10.02369
       H   -12.33344    1.32767  -15.06636
       O   -13.31001    1.52316  -15.30746
      H1   -13.37450    2.35233  -14.81784
       H   -14.32583   -0.89109  -10.05988
       O   -14.24566   -1.85440   -9.99042
      H1   -14.26153   -2.17687  -10.88299
       H   -17.92987    8.00925  -16.76497
       O   -17.93932    7.07595  -16.92228
      H1   -17.77382    6.84278  -17.87260
       H   -15.21821   -0.30651  -17.37776
       O   -14.30341   -0.31612  -17.17509
      H1   -14.22806    0.40853  -16.56761
       H   -13.74886    7.59664  -17.32491
       O   -12.98589    7.99754  -17.72501
      H1   -13.22351    8.95236  -17.72902
       H   -14.65133    2.08647  -12.01295
       O   -15.20108    2.62458  -11.34793
      H1   -16.10820    2.47996  -11.64911
       H   -14.01340    8.57174  -12.01169
       O   -13.69503    7.66861  -12.23553
      H1   -12.79185    7.84047  -12.54742
       H   -16.97344   10.78656  -18.79189
       O   -17.67617   11.21249  -18.35746
      H1   -17.56553   10.87049  -17.43963
       H   -14.38259    3.70738  -10.32435
       O   -13.80842    4.31941   -9.81972
      H1   -13.97619    5.24723  -10.05809
       H   -16.79978    4.99855  -14.05916
       O   -15.94829    5.42647  -13.87048
      H1   -16.00555    6.26314  -14.35494
       H   -14.59353    7.68978   -9.71741
       O   -15.56128    7.85594   -9.62012
      H1   -15.96585    7.22363  -10.26954
       H   -12.51486    3.80941  -11.04089
       O   -11.80129    3.63675  -11.69964
      H1   -11.33422    4.49637  -11.86679
       H   -16.25964    2.48867   -7.29483
       O   -15.27879    2.40277   -7.10931
      H1   -15.00789    3.34867   -7.14828
       H   -19.47576   -1.72911  -10.57237
       O   -18.75402   -2.31724  -10.27376
      H1   -18.70010   -2.30747   -9.28869
       H   -15.14037    2.94548  -19.66092
       O   -15.64055    2.18812  -19.39066
      H1   -15.26725    1.48437  -19.88989
       H   -12.91215    7.19151  -10.52718
       O   -12.83875    6.96700   -9.60463
      H1   -11.91641    6.78120   -9.48083
       H   -17.78716    7.70080   -7.74739
       O   -16.98725    7.95262   -7.26549
      H1   -16.37895    8.08607   -8.00003
       H   -18.55442    9.79679  -15.68850
       O   -17.67150    9.60462  -16.07431
      H1   -17.15308    9.22723  -15.33586
       H   -18.14479   -2.57392  -15.78863
       O   -18.23729   -2.47947  -16.70992
      H1   -18.64928   -1.59599  -16.76237
       H   -18.13218    0.43014   -6.70657
       O   -17.68455    0.40569   -7.64244
      H1   -18.26221    0.93703   -8.19253
       H   -18.41501    4.10201  -12.80899
       O   -18.59061    4.36475  -13.71520
      H1   -19.21123    5.16603  -13.66127
       H   -16.56680    0.94164  -18.40473
       O   -16.82088    0.08787  -17.99185
      H1   -16.89251   -0.59324  -18.70472
       H   -14.39431    1.48742  -10.26981
       O   -14.26724    0.89901   -9.48779
      H1   -14.95364    1.17148   -8.87755
       H   -16.46768    6.13039  -12.44538
       O   -16.84247    6.35441  -11.53166
      H1   -17.70412    6.71629  -11.61371
       H   -15.80826   11.33755  -14.84039
       O   -15.95541   11.10737  -13.92482
      H1   -16.77880   11.45003  -13.70742
       H   -18.71305    0.17865  -17.27053
       O   -19.55163    0.43998  -16.89259
      H1   -20.25786    0.25141  -17.57110
       H   -13.91427    4.69834  -13.74822
       O   -13.32008    3.94894  -13.99103
      H1   -12.75209    3.68131  -13.23103
       H   -15.14602   -0.96848  -15.66373
       O   -15.18438   -1.17495  -14.72564
      H1   -15.40152   -2.11049  -14.73469
       H   -13.32579    3.82365  -17.47846
       O   -12.38489    3.80303  -17.45965
      H1   -12.10388    2.95790  -17.84074
       H   -14.51379   10.89989  -17.12099
       O   -14.70534   10.42450  -16.34178
      H1   -13.89658   10.18945  -15.83492
       H   -17.48003    4.17694   -5.76492
       O   -17.87003    3.37392   -6.14892
      H1   -18.76278    3.62775   -6.36228
       H   -18.35915   -2.18744  -13.24448
       O   -17.92375   -2.56887  -14.01768
      H1   -18.36817   -3.35892  -14.27857
       H   -11.78521    5.90112  -15.98166
       O   -12.02848    6.27324  -15.13887
      H1   -12.56421    5.55388  -14.80289
       H   -15.85195    6.29266  -16.80993
       O   -14.96276    6.65090  -16.72437
      H1   -14.93054    7.33864  -16.07667
       H   -14.99838    8.33126  -13.46468
       O   -15.51000    8.46578  -14.26248
      H1   -15.73493    9.41526  -14.19076
       H   -15.81389    9.31463  -10.64675
       O   -15.33280    9.86759  -11.27656
      H1   -16.00490   10.46275  -11.60830

