126
frame 8 | Written by MDAnalysis XYZWriter (release 2.4.3)
       H    -7.93314  -16.41018  -10.83425
       O    -8.57444  -17.12140  -10.68338
      H1    -8.11531  -17.92690  -10.89613
       H    -3.60744  -15.66906  -11.90256
       O    -4.53837  -15.39147  -11.69023
      H1    -4.57186  -14.41539  -11.88811
       H    -4.26046  -19.76915  -13.87543
       O    -4.89720  -19.10377  -14.08974
      H1    -5.62799  -19.25696  -13.46298
       H   -12.01957  -15.26478  -17.12638
       O   -12.33372  -14.43297  -16.76572
      H1   -11.55323  -13.88797  -16.81095
       H    -9.09724  -12.72472  -18.15001
       O    -9.88009  -12.61837  -18.70388
      H1    -9.63030  -12.45470  -19.59590
       H    -5.45609  -18.96928  -16.02389
       O    -5.21140  -18.84093  -16.97470
      H1    -5.99423  -19.05116  -17.48586
       H    -7.39128  -16.52266  -15.25055
       O    -7.87943  -16.56458  -14.37927
      H1    -7.48338  -17.36434  -13.90617
       H    -4.69574  -11.83666  -15.02603
       O    -4.73446  -12.73680  -14.60099
      H1    -4.27222  -13.34571  -15.25601
       H   -11.23231  -16.44137  -11.92067
       O   -11.38459  -16.40928  -10.98008
      H1   -10.53431  -16.56546  -10.55770
       H   -11.20757  -10.86995  -13.21139
       O   -11.39069  -11.39048  -13.98090
      H1   -10.61540  -11.90139  -14.16424
       H    -4.05916  -17.51191  -14.09750
       O    -3.72891  -16.59138  -14.01714
      H1    -4.30079  -16.22742  -13.36356
       H    -9.89285  -13.91571  -12.08510
       O   -10.41755  -13.53100  -11.34533
      H1   -10.84247  -14.33766  -11.01805
       H    -7.73975  -14.95746  -13.67955
       O    -7.88361  -14.05773  -13.28117
      H1    -7.01017  -13.75398  -13.08015
       H   -13.76634  -16.60803  -14.42552
       O   -12.94464  -16.13651  -14.55346
      H1   -12.99287  -15.48642  -15.22452
       H    -9.83524  -15.62565   -8.06543
       O    -9.65323  -14.65514   -7.84074
      H1    -9.46698  -14.63497   -6.88446
       H    -7.48580  -10.78625  -14.20113
       O    -6.76795  -10.22020  -13.89778
      H1    -7.15876   -9.71926  -13.13704
       H    -5.31529  -16.94871  -16.40129
       O    -6.07032  -16.29902  -16.55040
      H1    -5.62708  -15.49835  -16.80384
       H    -8.72021  -13.31284  -14.76884
       O    -9.25639  -12.84337  -15.40297
      H1    -8.59629  -12.31608  -15.94530
       H    -5.29043  -15.90477   -7.28909
       O    -5.97469  -16.34132   -7.85046
      H1    -6.59449  -15.64840   -8.10105
       H    -1.57477  -16.62242  -12.52897
       O    -1.92896  -16.94121  -11.64040
      H1    -1.16651  -17.03277  -10.99032
       H    -7.54648  -20.03640  -18.83767
       O    -7.63945  -19.30182  -18.20971
      H1    -7.59795  -18.51320  -18.76410
       H    -8.41850  -18.78691   -8.57980
       O    -7.63271  -19.38526   -8.64427
      H1    -7.59145  -19.95557   -9.38893
       H    -6.17088  -18.86647  -11.43656
       O    -6.96332  -19.00604  -12.05691
      H1    -7.31208  -19.94799  -12.10432
       H    -3.54557  -18.41072  -18.26949
       O    -2.88416  -18.80552  -18.84776
      H1    -2.61229  -18.11124  -19.49075
       H    -5.37213  -12.31689  -13.02431
       O    -5.37479  -12.64520  -12.08675
      H1    -5.56769  -11.82773  -11.60923
       H    -2.68895  -13.31157  -16.91606
       O    -3.42194  -13.93313  -16.85058
      H1    -3.04793  -14.78333  -16.63302
       H   -12.89526  -13.06341  -13.05824
       O   -13.57040  -13.73432  -12.74843
      H1   -13.28629  -14.62121  -13.00794
       H    -2.16542  -17.24329  -16.95457
       O    -2.86869  -16.62758  -16.68733
      H1    -2.74550  -16.58356  -15.67264
       H    -3.24218  -12.36768  -12.80297
       O    -2.26540  -12.33723  -12.69592
      H1    -2.15591  -12.85145  -11.90198
       H    -2.81273  -20.26089  -12.32108
       O    -2.06436  -19.68074  -12.09524
      H1    -2.39230  -18.77866  -11.84469
       H   -10.36601  -17.80982  -18.01995
       O   -10.48769  -16.87123  -18.05206
      H1    -9.59550  -16.49946  -18.30799
       H    -7.31500  -13.61788  -10.21910
       O    -7.48916  -14.34132   -9.63379
      H1    -8.29654  -14.19784   -9.18025
       H    -7.58878  -15.67120  -19.30334
       O    -7.94500  -15.84321  -18.42441
      H1    -7.09881  -15.88273  -17.85063
       H    -5.83390  -14.00582  -18.92566
       O    -5.65592  -13.28932  -18.31056
      H1    -4.78955  -13.50323  -17.98102
       H   -11.01367  -16.71066  -14.11586
       O   -10.38623  -17.22237  -13.57037
      H1    -9.51919  -16.92895  -13.89176
       H   -10.43830  -18.11588   -7.93104
       O    -9.72033  -17.48270   -7.88916
      H1    -9.71026  -17.36835   -6.93150
       H   -11.50448  -18.46298  -11.40562
       O   -11.88434  -19.29371  -11.12700
      H1   -11.14033  -19.88119  -11.06425
       H    -4.54310  -17.34883  -10.38594
       O    -4.99294  -18.06232   -9.85459
      H1    -5.50176  -17.71605   -9.09550
       H    -6.63630  -12.44554  -17.15723
       O    -7.28782  -11.75335  -16.81730
      H1    -7.21478  -11.03803  -17.47948
       H    -5.79012  -13.33578   -9.18779
       O    -5.43230  -12.48651   -9.12423
      H1    -6.06712  -11.99343   -8.51697
       H    -4.19141  -19.10083   -8.63681
       O    -3.69185  -19.87933   -8.34425
      H1    -3.44982  -19.72903   -7.42469
       H   -10.32654  -19.49879  -16.54533
       O   -10.34979  -19.43331  -17.52192
      H1    -9.49058  -19.76203  -17.77464

