126
frame 3 | Written by MDAnalysis XYZWriter (release 2.4.3)
       H     2.07039   18.53745   -7.72598
       O     2.05131   17.80796   -8.37764
      H1     2.94319   17.59730   -8.47668
       H    -2.71524   17.59784   -3.65696
       O    -3.04064   17.34228   -2.78799
      H1    -2.79633   18.03361   -2.18144
       H    -3.71445   14.16251  -11.59994
       O    -4.27939   13.56520  -11.16253
      H1    -4.62853   12.94728  -11.80928
       H    -0.66653   14.95923   -2.29652
       O    -1.62094   15.04898   -2.23685
      H1    -1.85982   15.98928   -2.45914
       H    -2.78800   17.00951  -13.05958
       O    -2.57052   17.68889  -13.66115
      H1    -2.67269   17.40717  -14.63423
       H    -4.21536   18.64030  -13.21632
       O    -5.18265   18.59891  -13.25674
      H1    -5.61501   19.27578  -12.65081
       H   -10.23946   16.86955   -8.58805
       O    -9.81652   17.22028   -9.34888
      H1    -9.06687   17.72852   -9.03848
       H    -1.30377   18.94258  -11.83894
       O    -1.16074   19.10168  -10.87276
      H1    -2.02447   19.14958  -10.45816
       H    -2.13554   17.89402   -6.14425
       O    -1.59029   17.31611   -5.57071
      H1    -0.96308   17.89903   -5.11958
       H    -6.30641   13.78016  -11.02519
       O    -7.17730   13.74990  -10.72920
      H1    -7.72718   14.37511  -11.21879
       H    -9.20471   18.52870  -12.59201
       O    -8.67059   18.32134  -11.79680
      H1    -8.19375   17.50167  -12.03060
       H   -10.75287   16.93608   -6.17419
       O   -11.13022   16.39143   -6.92260
      H1   -12.07650   16.60496   -6.98147
       H     0.19487   14.51025   -7.25969
       O     0.67119   14.71676   -8.07216
      H1     1.56267   14.88738   -7.76265
       H    -1.09097   12.19121   -5.13400
       O    -0.86218   12.49124   -6.03972
      H1    -1.73763   12.49996   -6.49648
       H   -10.41179   18.78862   -5.15367
       O   -10.16831   17.93344   -4.81261
      H1    -9.29090   17.81927   -5.20647
       H    -6.30722   16.55361  -11.32664
       O    -6.79976   16.40388  -12.12906
      H1    -6.32973   17.06972  -12.63136
       H    -8.77178   17.06726   -1.78459
       O    -7.98461   16.59600   -1.60441
      H1    -8.13298   15.75786   -2.07607
       H    -4.94628   16.27507   -5.41225
       O    -5.44083   17.08101   -5.58590
      H1    -5.72579   17.42390   -4.71867
       H    -4.86592   11.82561   -4.60271
       O    -5.28629   12.70064   -4.83482
      H1    -6.14187   12.48553   -5.18601
       H    -7.27886   18.52233   -7.67443
       O    -6.94828   19.09350   -8.33454
      H1    -6.46936   18.41262   -8.86095
       H   -10.56830   17.67899   -3.15639
       O   -10.73773   17.59546   -2.18542
      H1   -10.48852   18.50956   -1.89714
       H     0.36187   19.46223   -4.90800
       O    -0.13788   19.05781   -4.25948
      H1    -0.81974   19.68210   -4.02034
       H    -8.11674   16.26849   -7.23282
       O    -7.97320   17.10508   -6.75611
      H1    -7.19260   16.89873   -6.26489
       H    -0.55767   17.10086    0.56469
       O    -0.26699   17.53587   -0.23896
      H1    -0.31878   17.07371   -1.05042
       H     3.90038   19.29101   -5.07903
       O     3.61687   18.36026   -4.97542
      H1     2.78657   18.32811   -5.44588
       H    -1.50530   18.92832   -0.63587
       O    -2.15347   19.36239   -1.26031
      H1    -2.67013   19.85098   -0.62245
       H    -6.04035   12.91378   -3.15598
       O    -6.55956   12.97148   -2.32405
      H1    -6.06557   13.56690   -1.77731
       H     1.69243   15.69447   -2.36806
       O     1.08470   14.95011   -2.49183
      H1     0.83399   15.00632   -3.43406
       H    -6.04134   17.35600    1.37310
       O    -5.07450   17.46183    1.40584
      H1    -4.95553   18.42033    1.02756
       H    -4.98394   17.19093   -2.65928
       O    -5.87346   17.44813   -2.92675
      H1    -6.59594   17.02319   -2.47367
       H    -7.70698   14.18291   -8.84046
       O    -7.97746   14.29909   -7.89620
      H1    -8.53661   13.47346   -7.80286
       H    -0.46911   15.72953   -5.68009
       O     0.16937   15.07812   -5.34236
      H1    -0.33737   14.19229   -5.40895
       H    -3.23139   19.70214   -6.50373
       O    -3.47613   18.77171   -6.72070
      H1    -4.32391   18.63388   -6.26005
       H    -3.50700   15.16033   -7.54713
       O    -3.34483   14.98363   -8.47979
      H1    -2.51945   15.36838   -8.75669
       H    -2.06636   16.21171  -11.03802
       O    -2.91159   16.06640  -11.45970
      H1    -3.61002   15.99291  -10.74329
       H    -9.91043   15.45948  -11.88164
       O    -9.44244   15.04863  -11.19623
      H1    -9.30784   15.74056  -10.53922
       H    -4.02722   13.89777   -5.38086
       O    -3.72567   14.79750   -5.71729
      H1    -2.77218   14.88400   -5.44637
       H    -2.57249   11.98552   -8.56440
       O    -3.03336   12.37507   -7.78483
      H1    -3.29693   13.24047   -8.18353
       H    -4.75313   16.46556   -9.17912
       O    -5.22716   17.11032   -9.71294
      H1    -4.62014   17.86529   -9.71440
       H    -3.76922   20.02431   -9.61566
       O    -3.42913   19.12584   -9.40636
      H1    -3.56934   19.12932   -8.43532
       H    -9.41182   13.73265   -3.44467
       O    -8.85154   14.20447   -2.80248
      H1    -7.94897   13.76265   -2.79442
       H    -0.09387   15.99890   -9.03200
       O    -0.59190   16.36999   -9.76894
      H1    -0.81744   17.29008   -9.61501

