126
frame 1 | Written by MDAnalysis XYZWriter (release 2.4.3)
       H    -2.21104   -1.56288   13.12714
       O    -2.58302   -1.20092   12.29803
      H1    -2.57610   -0.22666   12.38191
       H     6.34214    4.69798   17.70538
       O     5.77345    5.33073   18.08722
      H1     5.42233    5.91051   17.43363
       H    -1.82118    4.68461   13.66734
       O    -2.11001    4.58125   14.57136
      H1    -1.24979    4.28098   14.89456
       H    -1.19346   -1.24946   18.40569
       O    -0.45009   -1.61385   17.87649
      H1    -0.85037   -2.21883   17.22654
       H    -5.12902    4.58484   18.15023
       O    -4.13963    4.58179   18.08254
      H1    -4.02431    5.21457   17.33385
       H     3.72409    6.78829   16.65554
       O     4.50595    7.35951   16.70661
      H1     4.22008    8.30643   16.72086
       H     0.10460   -0.18731   14.38068
       O    -0.23949    0.36020   13.65804
      H1    -0.62965    1.18909   14.07529
       H     3.55098    2.50350   14.18371
       O     4.46260    2.08819   14.18991
      H1     4.71073    2.17108   15.12537
       H    -8.04155    2.94237   15.53438
       O    -7.21697    3.49276   15.62525
      H1    -6.98809    3.93475   14.85799
       H     5.18829    2.28568   17.44388
       O     5.65587    1.90597   16.62849
      H1     6.53241    1.57253   16.81135
       H    -0.53762    1.82346   16.45454
       O    -0.65778    2.74676   16.20059
      H1    -1.06876    3.14705   16.99659
       H    -0.46196   -3.19872   13.96572
       O    -1.16625   -2.60227   14.26304
      H1    -1.71961   -3.09175   14.80793
       H     3.33255   -0.88726   15.16778
       O     3.35647   -0.74349   16.11698
      H1     4.16543   -0.30588   16.30967
       H     1.68739    0.08107   16.37456
       O     0.72359    0.18015   16.33123
      H1     0.38983   -0.39268   17.02441
       H    -7.22972    7.22260   15.46936
       O    -6.41816    7.03096   14.95225
      H1    -5.66715    7.01225   15.54889
       H     3.71792    2.02807   19.04722
       O     3.77063    2.81220   18.48942
      H1     3.55643    3.54351   19.04227
       H    -7.75679    7.24528   17.45066
       O    -7.13138    7.12207   18.17641
      H1    -7.18846    6.17370   18.32833
       H     0.28928    7.10036   18.81327
       O     0.89568    7.16875   18.04394
      H1     1.16757    8.09493   17.95406
       H    -5.81903    2.69941   16.21349
       O    -5.07539    2.06385   16.43691
      H1    -4.58926    2.40613   17.22453
       H    -3.30708    5.86988   15.63325
       O    -3.89241    6.31830   16.22368
      H1    -3.56672    7.16690   16.46023
       H     1.41790    5.51182   13.21730
       O     1.70943    6.39483   13.53472
      H1     1.93247    6.17665   14.43259
       H    -2.47271    3.45152   18.42853
       O    -1.73000    2.84936   18.67230
      H1    -1.13565    3.33274   19.23829
       H     1.70320    6.09798   16.99715
       O     2.21932    5.68414   16.30344
      H1     2.17577    4.72610   16.50971
       H    -1.60535   10.32015   15.73886
       O    -1.16209    9.45687   15.85813
      H1    -0.27942    9.63896   16.24765
       H     1.18188    2.66219   16.39962
       O     2.16386    2.80395   16.18229
      H1     2.75632    2.85267   16.97912
       H    -0.24298   10.25191   19.26443
       O    -1.20652   10.25441   19.05621
      H1    -1.33465    9.62864   18.29601
       H    -3.16214   -4.51859   15.94025
       O    -2.56655   -3.84592   16.20222
      H1    -3.02043   -3.24809   16.83888
       H    -7.39869    0.82122   18.92578
       O    -7.95575    1.62715   18.97610
      H1    -8.42487    1.64004   18.15905
       H     0.82092   -4.96859   18.07636
       O     1.24764   -4.25117   18.54530
      H1     1.18358   -3.53971   17.88809
       H     1.01851    0.89448   12.38799
       O     1.63375    1.53455   12.09477
      H1     1.67004    1.42880   11.12781
       H    -5.00208   -1.24971   15.05873
       O    -5.41652   -0.70093   15.76371
      H1    -5.15622    0.22811   15.71242
       H    -3.39077   -1.20788   18.32454
       O    -3.78496   -1.90561   17.76106
      H1    -4.24456   -1.36076   17.06743
       H     1.99921   10.01052   17.27399
       O     1.09095    9.94503   17.42765
      H1     0.69870   10.83172   17.33446
       H    -2.75970    2.98509   14.41413
       O    -3.30377    2.16200   14.22069
      H1    -3.92412    2.22149   15.04230
       H     0.56087    7.93551   13.66119
       O     0.09811    8.77775   13.42013
      H1    -0.31725    8.91253   14.29994
       H     3.91663    0.46803   13.77554
       O     3.37448   -0.21787   13.37193
      H1     2.75922    0.29284   12.79253
       H    -7.27290    3.39403   18.68126
       O    -6.91887    4.23718   18.28501
      H1    -6.95465    4.08334   17.32450
       H    -4.40407    2.05963   12.63867
       O    -5.13948    1.76951   12.09943
      H1    -5.50501    0.95643   12.36715
       H    -0.57678    3.62830   11.92864
       O     0.18984    3.72308   12.52675
      H1     0.75711    2.91242   12.37041
       H    -3.86320    9.81083   17.49175
       O    -3.47515    8.89641   17.49083
      H1    -2.77537    9.03092   16.83491
       H     0.87935   -2.81057   15.36024
       O     1.68642   -3.04364   15.86660
      H1     2.24654   -2.27611   15.90039
       H    -3.85549    7.59021   18.88668
       O    -3.81481    7.31420   19.83445
      H1    -4.46786    7.95211   20.18826

