126
frame 9 | Written by MDAnalysis XYZWriter (release 2.4.3)
       H    -4.76678   -3.07210  -11.80925
       O    -4.11796   -3.55754  -11.29535
      H1    -3.26950   -3.19237  -11.56189
       H   -17.17060   -0.18091  -10.22340
       O   -16.23899   -0.29118  -10.48962
      H1   -15.70944    0.23558   -9.90501
       H   -11.49674   -1.63113   -9.93302
       O   -11.00447   -0.75257  -10.03872
      H1   -10.72478   -0.65600  -10.97220
       H   -10.15449    5.13008   -6.59705
       O   -10.05015    5.33392   -7.52761
      H1    -9.55469    4.62973   -7.98947
       H   -17.38869   -1.59977  -14.12306
       O   -16.80389   -1.00454  -13.65978
      H1   -16.33499   -1.64377  -13.14161
       H    -8.66014   -4.78983  -15.60830
       O    -8.77185   -5.43685  -16.34906
      H1    -9.74233   -5.33633  -16.46565
       H   -15.67685   -1.95208  -11.46611
       O   -15.16549   -2.69776  -11.82308
      H1   -15.74527   -3.24346  -12.42395
       H    -8.82144   -0.10670   -7.96440
       O    -8.91528   -0.90223   -8.52939
      H1    -9.69332   -0.87572   -9.04976
       H    -6.32599    0.54780  -14.67433
       O    -5.37511    0.57813  -14.62831
      H1    -5.16745    1.43800  -14.21739
       H   -15.21422   -1.85833  -16.16618
       O   -14.55886   -1.12940  -16.13115
      H1   -14.81682   -0.61214  -15.36892
       H   -12.63433   -5.46654  -11.68389
       O   -12.13660   -5.50066  -10.82522
      H1   -12.22582   -4.61963  -10.42662
       H   -14.48640    1.80993  -11.57670
       O   -14.41918    2.48158  -10.89133
      H1   -14.85411    3.22430  -11.26037
       H   -13.45123    1.59985   -9.32208
       O   -12.89412    1.22917   -8.57517
      H1   -12.03110    1.04533   -9.01187
       H    -9.05976    5.15636  -13.22636
       O    -9.17012    5.93934  -13.80053
      H1    -8.86246    5.71047  -14.67124
       H   -13.18434   -1.01607  -12.91653
       O   -12.31781   -1.35263  -13.15785
      H1   -11.73224   -0.60077  -13.01211
       H   -11.16062    5.09519  -10.72318
       O   -10.64985    4.78771  -11.50802
      H1   -11.36136    4.60885  -12.12833
       H    -6.73234    0.67384  -11.28967
       O    -6.94406   -0.24902  -11.29691
      H1    -7.64971   -0.20814  -10.65196
       H    -6.67522    4.11487   -9.14083
       O    -5.70076    4.15814   -9.26703
      H1    -5.47237    4.86891   -8.67685
       H    -9.80845    3.38294  -11.47192
       O    -9.19569    2.61098  -11.44372
      H1    -8.52471    2.74363  -12.11219
       H    -8.71307    2.86796   -9.62268
       O    -8.51317    3.13113   -8.72204
      H1    -8.33124    2.39582   -8.10264
       H   -12.19541    6.64693   -9.36693
       O   -12.24659    5.67982   -9.28952
      H1   -11.60094    5.49626   -8.59341
       H    -6.84144   -2.57367  -13.36285
       O    -5.91935   -2.32933  -13.17472
      H1    -6.04046   -1.51030  -12.64447
       H   -11.67642   -3.12264  -13.67551
       O   -11.22653   -3.81139  -14.16401
      H1   -11.65701   -3.86244  -15.04620
       H    -9.19932    0.73234  -15.28404
       O    -8.69590    0.02155  -14.86380
      H1    -9.14691   -0.72017  -15.20548
       H    -9.58639    3.69578  -18.11703
       O    -9.02553    2.95616  -17.80892
      H1    -9.58739    2.34289  -17.25644
       H    -5.83904   -1.31352  -17.31056
       O    -5.09764   -0.73340  -17.18772
      H1    -5.01684   -0.47726  -16.27657
       H   -13.44431    4.45204  -13.28126
       O   -12.78536    3.79313  -13.10967
      H1   -13.12353    3.36061  -12.31978
       H    -9.67581   -0.00155  -13.33973
       O   -10.19017    0.26952  -12.57058
      H1   -10.00279    1.22756  -12.57527
       H   -11.66320   -3.29704   -8.44707
       O   -12.23650   -3.17345   -9.24161
      H1   -13.09232   -3.42103   -8.90765
       H    -6.62289    5.06429  -16.23245
       O    -7.48182    4.68015  -16.09544
      H1    -7.81412    4.08884  -16.70994
       H   -12.45653   -4.03081  -17.54711
       O   -11.60802   -3.98917  -17.11919
      H1   -10.90906   -3.89937  -17.84072
       H    -8.62905   -3.31446   -6.32347
       O    -9.23345   -2.57215   -6.26964
      H1    -9.04039   -2.04221   -7.01048
       H   -11.39446   -1.98713  -16.81420
       O   -11.23165   -1.11166  -16.46774
      H1   -12.14723   -0.77763  -16.27418
       H    -9.24389   -3.76004  -13.78646
       O    -8.32517   -3.70846  -14.01858
      H1    -7.93935   -4.50190  -13.62296
       H   -11.63747    2.23765  -16.21681
       O   -10.87897    1.67113  -16.33644
      H1   -11.16727    0.82285  -16.59805
       H    -5.54452   -0.98155  -10.25719
       O    -4.88018   -1.30272   -9.65467
      H1    -4.52402   -2.10558  -10.06464
       H    -5.26536   -3.29351  -14.56916
       O    -5.43790   -3.96569  -15.36979
      H1    -4.64054   -3.89780  -15.90323
       H   -12.34658    6.81940  -14.57760
       O   -11.71985    6.11544  -14.79443
      H1   -10.92879    6.13917  -14.19608
       H   -14.74700    1.51540  -14.21352
       O   -13.88098    1.30627  -13.76434
      H1   -13.42503    2.18225  -13.85603
       H    -5.87896    2.91369  -10.67638
       O    -5.83919    2.23703  -11.37563
      H1    -6.16255    2.73837  -12.16660
       H    -8.37239    0.89916   -6.01164
       O    -7.95723    1.25392   -6.79271
      H1    -7.02548    1.29832   -6.60533
       H    -7.36239    3.81854  -14.14132
       O    -7.14424    3.77972  -13.22096
      H1    -6.54751    4.58557  -13.08644

