126
frame 0 | Written by MDAnalysis XYZWriter (release 2.4.3)
       H    -7.41606    6.27551  -17.85619
       O    -6.70459    6.19357  -17.19295
      H1    -5.84967    6.16890  -17.73150
       H    -9.27032   -4.90428  -16.13225
       O    -9.67784   -5.74857  -15.75865
      H1   -10.05410   -6.13720  -16.57285
       H   -14.81701   -0.64983  -13.95566
       O   -14.57357    0.19152  -13.49340
      H1   -13.87630    0.64351  -14.04892
       H    -7.34822   -3.17396  -16.59560
       O    -8.26755   -3.51755  -16.86942
      H1    -8.87137   -2.82512  -16.60224
       H   -12.14210    1.15726  -15.04662
       O   -13.03578    1.46370  -15.07025
      H1   -13.16666    2.42741  -14.86732
       H   -17.67521    6.90389  -16.64582
       O   -17.41527    5.95165  -16.69859
      H1   -17.32692    5.82234  -17.63940
       H   -15.11037   -0.02268  -17.12818
       O   -14.19845   -0.46574  -17.06861
      H1   -13.63317    0.15344  -16.63031
       H   -13.02839    4.93046  -18.20327
       O   -13.45796    4.36157  -18.84645
      H1   -13.28815    3.44524  -18.57499
       H   -11.09754   -5.47867  -18.24813
       O   -11.04102   -6.43415  -18.00453
      H1   -11.06439   -6.95522  -18.87354
       H   -13.06149    7.20137  -17.48505
       O   -12.20493    6.86484  -17.89186
      H1   -12.04346    7.32583  -18.71508
       H   -14.87520    1.76170  -12.27696
       O   -15.52001    2.29380  -11.76070
      H1   -16.25443    1.66979  -11.60446
       H   -14.47508   10.48916  -19.10599
       O   -15.37861   10.25329  -19.49206
      H1   -15.35119    9.27141  -19.71499
       H   -12.78716   -0.47779  -12.30445
       O   -11.88007   -0.64020  -12.57320
      H1   -11.72177   -0.04385  -13.33360
       H   -15.97544    4.04726  -14.25597
       O   -15.61482    4.93642  -14.32989
      H1   -16.23795    5.31506  -14.95486
       H    -7.91378   -3.08579  -18.67470
       O    -7.71316   -2.76590  -19.54441
      H1    -7.66170   -3.48702  -20.20858
       H    -5.14267    1.46294  -18.43184
       O    -5.10795    2.47990  -18.44873
      H1    -5.78545    2.79837  -17.82609
       H   -13.40033    1.17541  -19.94897
       O   -14.09065    0.53245  -19.92012
      H1   -14.00716    0.04551  -19.10122
       H   -11.86588    3.67395  -11.70490
       O   -11.26115    4.03402  -12.36901
      H1   -11.34708    4.99563  -12.17511
       H   -14.96111   -5.59032  -15.75040
       O   -15.52802   -5.28641  -15.06091
      H1   -15.71564   -6.10241  -14.53796
       H   -11.24864   -2.11642  -13.08108
       O   -10.78148   -2.90664  -13.40928
      H1   -11.36759   -3.69126  -13.33780
       H   -13.84562   -3.49723  -17.31915
       O   -14.35039   -3.76355  -18.09472
      H1   -15.18273   -3.31185  -18.13991
       H    -9.61828   -1.77559  -19.49236
       O   -10.29644   -1.22729  -19.07173
      H1   -11.03813   -1.40300  -19.67439
       H   -10.05314    3.90644  -15.75154
       O    -9.66299    3.22490  -15.13463
      H1    -9.12632    3.68274  -14.42096
       H   -19.36692   -3.66389  -16.53964
       O   -19.62495   -2.91203  -17.09376
      H1   -19.64619   -2.10552  -16.57951
       H    -6.37555   -1.11372  -19.03916
       O    -5.82807   -0.47342  -18.58844
      H1    -4.93288   -0.56050  -19.01495
       H   -16.67804    0.97277  -17.88435
       O   -16.85130   -0.00671  -17.64369
      H1   -16.85870   -0.44555  -18.49551
       H   -14.07814   -5.31646  -17.52894
       O   -13.94830   -6.20682  -17.03247
      H1   -13.02499   -6.48979  -17.14710
       H    -9.69359    0.38720  -18.51693
       O    -9.35034    1.08877  -17.93152
      H1    -8.68205    1.53454  -18.48850
       H    -8.96826    6.99476  -17.95981
       O    -9.15349    6.25096  -18.54058
      H1    -9.76589    5.69972  -18.04742
       H   -18.82491   -0.06249  -16.73833
       O   -19.65700   -0.00579  -16.28318
      H1   -20.16270    0.64973  -16.77043
       H   -13.79974    4.59202  -14.31132
       O   -13.01250    4.08610  -14.49516
      H1   -12.49697    4.06294  -13.65988
       H   -14.85681   -1.49573  -15.93472
       O   -15.05548   -2.13288  -15.19493
      H1   -15.35669   -2.97877  -15.52944
       H   -17.88849   -3.37897  -18.21699
       O   -16.96724   -3.74714  -18.14035
      H1   -16.99579   -4.69568  -18.18781
       H    -7.47814    4.53325  -16.87803
       O    -7.54121    3.56927  -16.92063
      H1    -8.27801    3.39358  -16.26076
       H    -9.52729    8.08879  -14.42331
       O   -10.38898    7.99777  -14.83577
      H1   -10.24702    7.09488  -15.22338
       H   -13.55267   -2.82781  -15.56260
       O   -12.82306   -3.33942  -15.84866
      H1   -12.72641   -4.11126  -15.24546
       H   -10.40646   -1.50412  -17.19963
       O   -10.35702   -1.86635  -16.25815
      H1   -11.14635   -2.42435  -16.11834
       H   -12.14745    2.02270  -16.95401
       O   -11.83617    2.35892  -17.78526
      H1   -10.88922    2.10764  -17.71828
       H   -10.08798    0.02287  -15.31111
       O   -10.52826    0.64944  -14.71446
      H1   -10.00642    1.44499  -14.93230
       H   -11.51763    6.07112  -16.59064
       O   -10.97268    5.54081  -15.95901
      H1   -11.68828    5.11557  -15.40776
       H   -15.44969    6.97497  -16.47624
       O   -14.48174    7.15839  -16.46696
      H1   -14.36761    7.76925  -15.73993
       H    -6.76525    2.82623  -15.53843
       O    -6.33544    2.43490  -14.74469
      H1    -5.61952    2.02542  -15.22503

