126
frame 2 | Written by MDAnalysis XYZWriter (release 2.4.3)
       H    -2.31799   13.15381    3.52280
       O    -2.20471   14.09849    3.31726
      H1    -3.09107   14.35451    3.05947
       H     2.06689   19.68145    0.51946
       O     2.07867   18.69679    0.60120
      H1     1.23070   18.44842    0.17278
       H    -4.60977   18.94704    5.29662
       O    -5.37612   18.36382    5.17122
      H1    -5.63212   18.57836    4.25587
       H    -7.64265   15.80757    4.59675
       O    -8.58621   15.88058    4.30988
      H1    -8.55860   15.04000    3.79986
       H    -6.89278   17.09998   11.28303
       O    -7.40480   16.31653   11.45312
      H1    -6.79871   15.60197   11.59387
       H     0.12162   18.70966   12.88538
       O     0.95717   18.92557   13.32580
      H1     1.42561   18.01632   13.37940
       H    -8.20210   12.25474    7.04633
       O    -7.57017   12.95349    7.09903
      H1    -7.82907   13.74779    6.61398
       H    -3.05181   16.35746    1.82200
       O    -2.22351   16.88863    1.84645
      H1    -2.27623   17.30537    2.72156
       H     3.38587   19.65159    4.96630
       O     3.29298   18.71857    4.71040
      H1     4.06871   18.48583    4.20092
       H    -8.26325   19.24472    5.89702
       O    -7.58277   19.55785    6.50472
      H1    -6.77655   19.23405    6.13426
       H    -2.09726   14.90316    8.41447
       O    -2.78682   15.49889    8.30891
      H1    -3.00991   15.41147    7.34147
       H     2.77055   18.41615    6.62593
       O     2.41398   18.05326    7.45908
      H1     1.54297   18.37413    7.46433
       H     3.56110   18.99447    8.81363
       O     4.28640   19.42990    9.32445
      H1     4.29980   20.33927    9.04010
       H     2.68478   14.86086    6.91022
       O     3.21860   15.44779    7.41807
      H1     2.81676   16.33957    7.33316
       H     0.31397   18.56837    4.07054
       O     0.66419   17.70635    4.07421
      H1     1.64158   17.73266    3.97457
       H    -9.07682   17.50791    4.45505
       O    -9.36834   18.46174    4.58553
      H1   -10.05420   18.38032    5.26459
       H    -2.05146   12.59214   10.55137
       O    -1.16376   12.96802   10.74660
      H1    -0.68101   12.97891    9.90629
       H     1.83278   13.13997    5.65506
       O     1.77228   13.26340    6.59799
      H1     2.25526   12.51052    6.94843
       H    -0.59477   15.15417    2.68829
       O     0.24128   15.19272    2.25916
      H1     0.61483   16.06428    2.61484
       H    -0.54457   13.96917    0.98740
       O    -0.77895   13.49431    0.18682
      H1    -1.30766   14.11965   -0.35253
       H    -5.54126   14.91992    2.16945
       O    -4.62623   15.26625    2.21513
      H1    -4.79338   16.17364    2.61466
       H    -0.81874   16.93606    0.52949
       O    -0.30432   17.32211   -0.22565
      H1    -0.39048   16.59969   -0.81284
       H    -2.23491   18.23953   10.58524
       O    -1.75701   17.74982    9.93088
      H1    -2.38448   17.02953    9.66954
       H    -1.44827   12.85154    7.49614
       O    -0.74362   13.25538    8.06736
      H1     0.09366   13.05301    7.65863
       H    -0.58562   16.71443   10.79104
       O    -0.09837   16.06305   11.28518
      H1    -0.56963   15.24974   11.22433
       H    -2.77277   16.87685   13.27740
       O    -2.12709   17.54245   12.90302
      H1    -1.62632   16.96478   12.31335
       H     1.21321   15.01066   10.31371
       O     2.00528   14.54617    9.95831
      H1     2.22600   15.11072    9.22007
       H    -2.11021   11.77494    5.20805
       O    -1.57740   11.66006    4.42029
      H1    -1.76566   10.69607    4.20417
       H    -1.48925   18.85574   -0.31110
       O    -2.34458   19.19292   -0.62438
      H1    -3.01311   19.40979    0.03534
       H    -5.88974   19.43215   11.27359
       O    -6.47062   19.06829   10.62888
      H1    -6.08504   18.89019    9.78061
       H    -0.57766   18.83348    8.38885
       O    -0.02611   19.01425    7.61779
      H1    -0.47662   18.50589    6.90923
       H    -6.45212   17.68929    2.04586
       O    -5.54892   17.87703    2.45130
      H1    -5.06832   18.46292    1.80494
       H     5.07397   18.21235    1.98275
       O     4.36569   17.54130    2.08198
      H1     3.54435   17.99558    1.81423
       H    -2.70168   11.51493    7.20157
       O    -3.08804   12.22895    6.62343
      H1    -3.99576   11.91393    6.48617
       H     0.38676   12.37133    3.97204
       O     1.20548   12.86414    3.78616
      H1     1.02266   13.64455    3.22316
       H    -0.47319   17.22101    5.23527
       O    -1.21082   17.34723    5.89103
      H1    -1.91167   16.68584    5.83260
       H    -5.18251   17.47946    8.37015
       O    -5.00773   18.42307    8.36109
      H1    -4.42945   18.59326    7.56509
       H    -4.56651   15.52421    8.76925
       O    -5.52421   15.71860    8.71239
      H1    -5.98814   14.92708    8.94989
       H    -3.09454   19.96438    5.68465
       O    -3.10661   19.30208    6.44642
      H1    -2.37665   18.68509    6.16438
       H    -5.90190   16.70074    5.60964
       O    -6.06173   15.76494    5.73541
      H1    -6.20268   15.63466    6.64513
       H    -4.47112   15.34100    5.40079
       O    -3.47766   15.38673    5.48027
      H1    -3.08510   14.57175    5.04483
       H    -6.11275   12.32108    5.99367
       O    -5.69085   11.66073    5.41679
      H1    -6.46947   11.01881    5.30170

