126
frame 9 | Written by MDAnalysis XYZWriter (release 2.4.3)
       H    -2.22283    3.81990    1.39820
       O    -1.46070    3.25346    1.01751
      H1    -1.35746    2.57605    1.69515
       H     1.20861    3.69412    5.01893
       O     1.08272    4.56459    5.31034
      H1     1.96196    4.92592    5.33967
       H    -0.53698   -2.69849   -4.43797
       O    -1.32231   -2.42747   -3.94797
      H1    -1.11066   -1.51846   -3.68478
       H     2.17314    4.79078    1.72319
       O     2.55085    3.81094    1.73186
      H1     2.10955    3.34665    1.00064
       H    -4.25275   -2.98694   -2.04405
       O    -3.71529   -3.54289   -2.60933
      H1    -3.05382   -2.92749   -3.06238
       H     0.17907   -4.82872    1.21935
       O     0.16377   -4.21382    0.49282
      H1     1.01454   -4.02609    0.09560
       H     1.97596    0.99820   -0.01069
       O     2.17930    1.91850   -0.23195
      H1     3.09483    1.98761   -0.45063
       H     4.59644   -0.86775    5.62564
       O     3.83568   -0.24605    5.58784
      H1     4.02928    0.51464    6.23528
       H     0.64766   -2.24553    2.78897
       O     1.27150   -2.21490    3.54835
      H1     0.84979   -1.67004    4.22279
       H    -3.89895    5.41180    0.70753
       O    -3.32638    5.18530    1.48532
      H1    -2.74209    5.94810    1.63587
       H     1.35114   -2.16464   -0.58351
       O     2.01793   -2.71887   -0.97137
      H1     2.40243   -2.14167   -1.61498
       H    -2.32926    2.21486    4.64850
       O    -2.89625    2.71789    4.02689
      H1    -3.56960    2.11808    3.62136
       H     3.90072   -4.39860    2.32603
       O     3.43812   -4.96805    2.94469
      H1     2.52344   -4.61136    2.82731
       H    -0.25110    6.18815   -0.89345
       O     0.12127    5.47827   -0.31420
      H1    -0.55723    4.79541   -0.19731
       H    -0.87563   -2.66130    7.88682
       O    -1.58818   -2.13120    7.54641
      H1    -1.15610   -1.42974    7.02129
       H    -4.29328    1.11760    1.59020
       O    -4.44818    0.50915    2.26433
      H1    -5.11561   -0.08752    1.91973
       H    -6.51924   -0.84366    4.19321
       O    -6.58353   -1.76457    3.93840
      H1    -7.25447   -1.81366    3.21752
       H    -2.46486    0.27929   -2.21035
       O    -1.53273    0.11129   -2.35818
      H1    -1.01640    0.91263   -2.21721
       H     3.37910   -0.05973    3.61479
       O     2.76125    0.03403    2.86152
      H1     2.29924   -0.79489    2.91666
       H    -2.28274    4.80800    4.15999
       O    -2.49490    5.72178    4.44273
      H1    -3.28607    5.64424    5.00956
       H    -4.61549   -1.31369   -0.70919
       O    -4.78450   -2.12432   -0.24046
      H1    -5.76418   -2.09876   -0.13979
       H     0.47675   -0.80114    6.20786
       O    -0.24003   -0.80829    5.58597
      H1    -0.56840    0.10253    5.54264
       H     0.33010    2.72566   -1.58055
       O     0.00665    2.30637   -2.39747
      H1     0.12624    2.93918   -3.09986
       H    -4.20607   -0.33713    8.28005
       O    -3.95577    0.21079    7.50653
      H1    -3.56739    0.96835    7.94808
       H     2.56684   -0.86908    6.75484
       O     1.73918   -1.00635    7.26308
      H1     1.80455   -0.42994    8.03796
       H    -3.08492   -1.98004    6.03445
       O    -3.83961   -2.30720    5.46543
      H1    -4.47754   -1.59474    5.30850
       H    -0.01462   -3.97485    4.23717
       O    -0.96249   -4.27993    4.37977
      H1    -1.39863   -3.75707    5.04170
       H    -1.44511   -4.54429   -0.39157
       O    -2.13491   -5.06681   -0.91829
      H1    -2.56807   -4.36186   -1.45685
       H     4.55222   -1.70884    0.79027
       O     4.31969   -2.58762    0.60725
      H1     3.39408   -2.59273    0.22671
       H    -1.87364   -2.51195    2.08839
       O    -1.03090   -2.19629    1.71379
      H1    -0.71736   -3.03596    1.32893
       H    -4.73964   -3.88927    5.79927
       O    -5.12333   -4.74653    6.04361
      H1    -5.03890   -5.44280    5.36786
       H    -1.29684   -0.39004    2.11208
       O    -1.48721    0.55535    2.36439
      H1    -2.45838    0.44725    2.41811
       H    -4.28416    2.96734   -0.38172
       O    -3.74502    2.24931    0.01531
      H1    -2.85920    2.64517    0.06590
       H    -0.67355    2.13403    6.20800
       O    -1.02212    1.65147    5.42297
      H1    -0.33137    1.76368    4.73266
       H    -5.44369    4.63982    4.38286
       O    -4.99564    4.25308    5.18027
      H1    -4.24363    3.68978    4.82792
       H     1.33233    2.84376    3.20372
       O     1.07061    2.17666    3.84759
      H1     1.63844    1.37506    3.52954
       H    -4.13130   -2.45664    3.16295
       O    -3.78635   -2.81875    2.41643
      H1    -4.31999   -2.49509    1.68285
       H     5.23134    0.69104    1.16266
       O     4.47748    0.32145    0.68448
      H1     3.72918    0.40709    1.31291
       H    -0.73622   -5.49259    3.19585
       O    -0.28241   -6.02332    2.47316
      H1     0.55561   -6.33680    2.83945
       H    -0.33551   -1.28385    0.14946
       O     0.16437   -0.77202   -0.48546
      H1    -0.45705   -0.66093   -1.24105
       H    -4.85999    0.50490   -2.48218
       O    -4.24200    0.17258   -1.79713
      H1    -3.87243    0.90405   -1.35307
       H    -4.73023   -5.28044    0.65607
       O    -4.87537   -5.17682    1.63570
      H1    -4.36556   -4.35786    1.91837

