126
frame 8 | Written by MDAnalysis XYZWriter (release 2.4.3)
       H   -11.63969  -10.11037   16.89779
       O   -12.20910  -10.25410   17.63906
      H1   -12.55524   -9.35763   17.87973
       H    -6.17121  -16.07157   18.49903
       O    -6.21982  -15.11439   18.69914
      H1    -7.12678  -14.89411   18.28996
       H    -6.57662   -5.07924   18.75604
       O    -6.32085   -5.37410   19.70564
      H1    -5.37172   -5.36334   19.70448
       H   -10.91850   -4.34860   17.77079
       O   -11.05639   -5.01400   18.52015
      H1   -10.43083   -5.71034   18.29189
       H    -9.70548   -8.48056   16.05967
       O    -9.91871   -9.38973   15.97221
      H1   -10.17604   -9.41780   15.07030
       H    -8.87382  -14.50462   16.53312
       O    -7.95152  -14.68916   16.76497
      H1    -7.49445  -14.48807   15.88530
       H    -9.07792   -9.94292   10.29085
       O    -8.38677   -9.99224    9.61203
      H1    -8.36304  -10.89192    9.32056
       H    -8.60330  -12.97494   12.08200
       O    -7.86125  -12.92789   12.69533
      H1    -7.29733  -12.18121   12.38796
       H   -11.60999  -10.20654   11.04868
       O   -10.69035  -10.32770   11.17642
      H1   -10.55033  -11.25534   11.41517
       H    -3.58459   -4.83290   12.02278
       O    -3.12037   -4.06169   11.70039
      H1    -3.11783   -4.15208   10.75934
       H    -7.11564  -13.80041   13.97903
       O    -6.40898  -14.06023   14.65616
      H1    -5.93682  -14.78748   14.12348
       H    -3.54772  -13.35465   17.45217
       O    -3.78271  -14.27975   17.42344
      H1    -4.68797  -14.31639   17.72415
       H    -2.06234  -12.26838   18.11821
       O    -2.60772  -11.66621   17.62647
      H1    -2.25483  -11.75006   16.72044
       H    -0.91905   -7.45816   13.02867
       O    -0.28455   -6.77984   13.46945
      H1     0.10964   -6.31435   12.78105
       H   -12.16529   -9.88299   14.02997
       O   -11.73592  -10.71430   13.71253
      H1   -11.54458  -10.47676   12.81767
       H    -2.80462   -8.95982   12.29218
       O    -1.94982   -8.54437   12.05388
      H1    -2.11542   -8.12802   11.11863
       H    -7.31236   -7.36113   15.09224
       O    -7.44355   -6.43741   14.79812
      H1    -8.20456   -6.53117   14.22818
       H    -1.40977  -12.29485   14.54137
       O    -1.68957  -11.57892   15.11369
      H1    -0.99668  -10.90071   15.06574
       H    -5.06053  -11.10452   16.42938
       O    -4.68742  -10.60647   15.63583
      H1    -3.80396  -11.00394   15.51105
       H    -1.06782   -7.52736   16.47799
       O    -1.55103   -8.33537   16.26028
      H1    -2.45370   -8.24393   15.95657
       H    -5.28084   -6.82751   10.32917
       O    -4.89892   -6.79198    9.45106
      H1    -4.77384   -7.68165    9.12730
       H     0.60426  -10.85497   16.25198
       O     0.49441  -10.09141   15.64665
      H1    -0.32135   -9.56138   15.81270
       H    -6.42628   -7.37294   19.10443
       O    -6.71750   -8.26838   18.78539
      H1    -6.74580   -8.19174   17.83647
       H    -3.76458  -12.03087   10.73255
       O    -4.14438  -12.42364   11.53295
      H1    -4.31839  -13.31740   11.24365
       H    -1.76039   -4.25239   14.61023
       O    -2.17512   -4.80898   15.23484
      H1    -1.93254   -5.67076   14.85418
       H    -5.16861  -11.73605   12.79437
       O    -5.82767  -11.16545   13.27006
      H1    -5.58852  -11.08968   14.17983
       H   -11.42591  -13.28215   16.25313
       O   -10.43940  -13.38727   16.03745
      H1    -9.92906  -12.89639   16.72883
       H    -3.43932   -9.27331   18.18632
       O    -3.95610   -8.82719   18.88121
      H1    -4.84640   -8.79914   18.53365
       H    -9.18541   -5.35497   12.20978
       O    -9.95379   -5.84476   12.46696
      H1   -10.48814   -5.14086   12.87985
       H    -0.69591  -13.48408   12.31314
       O    -1.31147  -13.36415   13.08427
      H1    -2.10821  -12.92753   12.69289
       H    -6.28653   -9.60210   16.10013
       O    -6.93170   -8.90376   15.93150
      H1    -7.79140   -9.27658   15.86011
       H    -5.11074   -9.90032   12.44902
       O    -4.52659   -9.21188   12.09518
      H1    -4.77882   -8.35157   12.32744
       H    -2.02477   -5.29245   18.88130
       O    -2.57682   -4.78853   18.29622
      H1    -2.26254   -4.83881   17.39307
       H   -10.04440   -7.56502   12.85410
       O    -9.79751   -8.43905   13.21971
      H1   -10.00726   -9.10455   12.58766
       H    -8.09062   -4.06504   16.98144
       O    -8.07443   -4.98574   17.05631
      H1    -7.91754   -5.27649   16.11020
       H    -9.36225   -7.66928   19.06203
       O    -9.41529   -7.14623   18.22322
      H1    -8.49476   -6.90531   18.08884
       H    -5.95551  -11.94379   18.82833
       O    -6.27509  -11.76478   17.89573
      H1    -6.29730  -12.64784   17.46758
       H    -4.32677   -6.76311   15.82532
       O    -3.93892   -7.38656   15.18554
      H1    -4.64901   -8.07714   15.07781
       H    -4.14679   -5.29394   17.35909
       O    -4.96803   -5.81022   17.09620
      H1    -5.57459   -5.11245   16.82781
       H    -3.66442  -15.75235   15.90231
       O    -3.81580  -16.25657   15.09138
      H1    -3.34057  -15.74082   14.44511
       H    -5.46208   -5.60062   12.60093
       O    -4.75561   -6.24230   12.52635
      H1    -4.31593   -6.25325   13.41518
       H    -9.74984  -11.16251   17.61321
       O    -9.24701  -11.89570   18.00587
      H1    -8.32458  -11.80955   17.79118

