126
frame 6 | Written by MDAnalysis XYZWriter (release 2.4.3)
       H     7.25616   -8.03319  -13.03942
       O     7.12472   -8.95541  -12.84190
      H1     7.94101   -9.37280  -12.47903
       H     3.36774   -6.16790   -6.74181
       O     3.38319   -5.32090   -7.23320
      H1     2.47840   -5.33597   -7.58585
       H     6.42615   -5.62916  -13.65663
       O     7.24305   -6.14953  -13.56585
      H1     7.53778   -5.61689  -12.78174
       H     8.00548   -4.97874  -15.20072
       O     7.90559   -4.14307  -15.73602
      H1     7.15284   -3.68426  -15.40409
       H    -0.41061   -9.16519  -11.22475
       O     0.49255   -9.16697  -11.53799
      H1     0.45387   -9.56066  -12.43293
       H     3.20328   -4.55530  -11.77035
       O     2.60837   -4.64353  -12.56534
      H1     1.83334   -5.19765  -12.32298
       H     0.07709   -4.46616  -10.81129
       O    -0.07271   -3.62076  -10.37323
      H1    -0.68126   -3.79459   -9.69803
       H    -1.14410   -6.34950  -10.67785
       O    -1.83041   -6.17945  -10.05424
      H1    -2.61527   -5.90549  -10.59320
       H     0.30440   -3.70873   -6.07903
       O     0.57917   -2.82104   -6.28319
      H1     1.10911   -2.94504   -7.16575
       H     3.23093   -9.36151   -8.37606
       O     2.96504   -8.49176   -8.64357
      H1     3.72597   -8.06967   -9.07046
       H     1.06666   -7.50468  -11.30762
       O     1.04729   -6.55126  -11.01819
      H1     1.77647   -6.41457  -10.44239
       H     4.96264   -3.50425  -10.23366
       O     4.16322   -4.09261  -10.28406
      H1     3.43613   -3.72930   -9.72574
       H     4.43262   -5.39125  -17.96287
       O     5.09835   -5.50311  -17.28802
      H1     5.78517   -5.11059  -17.80551
       H     3.80271  -10.08157  -15.75004
       O     3.24132   -9.28550  -15.69491
      H1     3.71943   -8.81944  -15.01983
       H     4.34860    0.13487   -9.89309
       O     4.92187    0.56162  -10.49988
      H1     4.39019    0.67662  -11.31389
       H     6.98687   -5.89187   -8.84818
       O     6.43836   -5.61310   -8.09342
      H1     5.92855   -4.80233   -8.35788
       H     0.98394   -0.33577  -15.39588
       O     1.19090   -0.39060  -16.33362
      H1     1.83017    0.32678  -16.44071
       H     5.43439   -3.15908  -14.21693
       O     6.00758   -2.42935  -14.52589
      H1     5.46666   -1.71872  -14.88292
       H     7.13118   -2.58829   -9.10843
       O     6.71636   -2.93678   -9.92470
      H1     6.66350   -2.12697  -10.50166
       H     2.40592   -1.80164  -11.82260
       O     2.78506   -1.99647  -12.69128
      H1     2.56368   -2.94504  -12.73265
       H     0.71633   -0.96750  -10.38010
       O     1.67695   -0.88994  -10.44589
      H1     1.77219   -0.00627  -10.05175
       H    -0.45414   -7.66968  -14.32703
       O     0.20430   -7.23862  -13.78079
      H1     0.97380   -7.80892  -13.80840
       H     5.65328   -7.71680  -15.01117
       O     6.02835   -7.69543  -15.87837
      H1     5.68301   -6.94258  -16.32553
       H     3.71544    1.61817  -13.04811
       O     3.02732    1.14091  -12.47637
      H1     2.76104    1.76548  -11.76763
       H     1.55408   -0.90110  -13.02071
       O     0.69554   -0.48099  -13.36686
      H1     0.04504   -1.18364  -13.35926
       H    -1.21336   -0.00176   -9.40464
       O    -1.09631   -0.62679  -10.14810
      H1    -1.31396   -1.46105   -9.77623
       H     4.49794   -6.55841  -13.96317
       O     4.31855   -7.45888  -13.60298
      H1     4.82850   -7.54519  -12.76843
       H     3.97098   -4.97090  -13.95337
       O     4.79111   -4.89556  -14.49150
      H1     4.61812   -4.94947  -15.44262
       H    -0.62468   -2.85126  -12.08106
       O    -0.98983   -2.52060  -12.86365
      H1    -0.68160   -3.21252  -13.50623
       H     0.51757   -7.63748   -7.78069
       O     0.15390   -6.73105   -8.01471
      H1    -0.54225   -6.85176   -8.71138
       H    -0.36784   -6.21705  -18.23944
       O    -0.80366   -5.78881  -17.48112
      H1    -0.13683   -5.65541  -16.76203
       H     2.68993   -3.77196  -16.01522
       O     2.15523   -4.52244  -16.35732
      H1     2.66173   -4.85220  -17.10445
       H     6.04217   -0.56401  -11.49688
       O     6.91043   -0.97552  -11.73860
      H1     6.79695   -1.23961  -12.65283
       H     2.43069   -1.62216  -15.70506
       O     3.14773   -2.09693  -15.31899
      H1     3.04095   -1.94100  -14.36024
       H     9.04054   -4.12237  -11.25787
       O     8.12225   -4.50395  -11.38876
      H1     7.61401   -3.97463  -10.76434
       H     0.02094   -5.56355  -14.12850
       O    -0.11788   -4.62664  -14.31667
      H1     0.66939   -4.47930  -14.87987
       H     5.48593   -6.72043   -9.20973
       O     5.12496   -7.35473   -9.87026
      H1     5.84278   -7.96926   -9.88121
       H     3.77853   -1.48742   -7.68293
       O     3.44047   -0.75072   -8.22157
      H1     3.38931    0.01315   -7.64512
       H     0.85303  -10.77520  -14.45308
       O     1.18675   -9.96736  -14.06148
      H1     1.89724   -9.74981  -14.68081
       H     2.56364  -11.44754  -12.44506
       O     2.67284  -10.95973  -11.63379
      H1     1.97351  -10.27994  -11.55922
       H     3.81313   -1.16790  -16.90915
       O     3.75318   -0.88341  -17.81609
      H1     4.10738    0.04485  -17.88869
       H     1.88738   -1.86294   -8.85387
       O     1.74302   -2.81693   -8.62333
      H1     1.19633   -3.14850   -9.36136

