126
frame 3 | Written by MDAnalysis XYZWriter (release 2.4.3)
       H    -7.12910    0.62957   11.79823
       O    -6.56815    0.00409   11.37448
      H1    -6.41189   -0.62655   12.10799
       H    -6.71377   -8.68536    9.62387
       O    -7.62567   -8.48487    9.83512
      H1    -8.08472   -9.28023   10.03426
       H    -2.54310   -2.31812   11.82249
       O    -3.39330   -1.83106   11.70078
      H1    -3.27309   -0.92690   11.47147
       H    -8.23887   -4.73764    6.53130
       O    -8.20776   -3.90433    6.00513
      H1    -7.84779   -4.15154    5.11398
       H   -14.38362   -0.62067   14.68882
       O   -13.43635   -0.88598   14.65376
      H1   -13.29569   -1.74727   14.27100
       H   -10.66404   -2.88920   15.99691
       O   -10.46858   -3.18630   16.88008
      H1   -10.87955   -4.05192   16.78354
       H    -5.48095   -6.57584   12.59178
       O    -5.77763   -5.70695   12.25953
      H1    -6.49408   -6.02091   11.72745
       H   -11.81618   -4.68946    9.29518
       O   -11.51437   -5.60856    9.47261
      H1   -10.58147   -5.58112    9.22740
       H    -8.01663   -3.67526   13.32384
       O    -7.29321   -4.00075   13.97484
      H1    -6.99278   -4.82474   13.44835
       H   -13.89601   -3.33934    9.69372
       O   -14.70296   -3.77560    9.95669
      H1   -15.30179   -3.13910   10.32170
       H    -8.20959    2.33668   10.26920
       O    -8.44022    2.31295   11.21317
      H1    -9.19506    1.65269   11.35029
       H    -9.25261   -4.48343   12.47696
       O    -9.23460   -3.58222   12.08871
      H1    -8.50601   -3.56305   11.45154
       H    -9.80864   -3.17024    6.43543
       O   -10.58411   -2.70605    6.79277
      H1   -11.24038   -2.51005    6.13185
       H    -7.27555   -8.59583   15.78586
       O    -6.65613   -7.91504   15.54464
      H1    -6.73340   -7.60774   14.62986
       H   -12.94110    1.81562   11.04236
       O   -12.35602    1.30042   10.40343
      H1   -12.90159    0.51729   10.13196
       H    -4.29625   -8.65483   12.76264
       O    -5.11037   -8.48454   12.17906
      H1    -4.87380   -8.41013   11.18775
       H   -12.64741   -6.66057   11.32588
       O   -13.10923   -7.11496   12.01778
      H1   -13.42602   -6.41684   12.60176
       H   -12.28193   -0.76535    8.15005
       O   -12.83730   -0.02819    7.81382
      H1   -12.15464    0.61425    7.59837
       H   -13.25765   -1.58691   11.42149
       O   -14.01511   -1.06924   11.08831
      H1   -14.81232   -1.27349   11.62152
       H    -4.87097   -1.93961   12.84393
       O    -5.75010   -1.85106   13.21156
      H1    -6.15492   -2.73629   13.32185
       H    -6.69144   -2.69391    9.64203
       O    -6.68358   -3.45391   10.22512
      H1    -6.04466   -3.19107   10.86358
       H    -8.02886   -7.71974   11.41150
       O    -8.09747   -7.29268   12.30779
      H1    -9.03030   -7.17478   12.47750
       H   -12.22946   -6.67218    8.32156
       O   -12.66327   -7.12600    7.58655
      H1   -11.86098   -7.32467    7.04130
       H    -4.66058   -7.52757    9.04198
       O    -5.22853   -8.27846    8.93002
      H1    -4.72503   -9.07516    9.11159
       H   -12.49576   -3.88655   14.11099
       O   -11.86587   -3.21633   14.39141
      H1   -11.49693   -2.75618   13.66575
       H    -1.10075   -4.44751    9.24765
       O    -1.88048   -4.95400    8.96040
      H1    -2.64330   -4.35713    9.10207
       H    -9.09534   -1.55757   15.68793
       O    -9.50454   -1.24103   14.91832
      H1    -9.57273   -0.30845   14.92579
       H   -11.17999   -7.13837   13.32116
       O   -10.76062   -6.33082   13.03617
      H1   -11.23038   -5.61599   13.48505
       H    -9.18708    0.41204    7.81431
       O    -8.68193   -0.38054    7.52741
      H1    -9.28418   -1.09382    7.36274
       H    -9.31392   -9.39621   12.62400
       O   -10.02162   -9.21770   13.24257
      H1   -10.78896   -9.53718   12.69541
       H    -8.03253   -4.83965   15.57927
       O    -7.86621   -5.41501   16.28759
      H1    -7.22054   -6.10991   16.02954
       H    -9.64715   -6.96531   18.15528
       O   -10.06813   -6.77451   17.28024
      H1    -9.30897   -6.48633   16.75042
       H    -5.64093   -1.73653   15.74394
       O    -5.56008   -1.00621   16.36213
      H1    -5.16630   -0.27544   15.88885
       H    -5.19950   -3.75705    8.55747
       O    -4.35460   -3.90760    8.08755
      H1    -4.55148   -4.50685    7.31664
       H   -10.47036   -2.46235   11.70177
       O   -11.19045   -1.81732   11.62096
      H1   -10.78610   -0.99174   11.82820
       H   -11.16306    0.95436   11.53141
       O   -10.46970    0.69840   12.13187
      H1   -10.77659    0.85154   13.01819
       H    -7.27880   -0.73781    8.40756
       O    -6.51171   -0.98280    8.96832
      H1    -6.59742   -0.37027    9.77553
       H    -8.31688   -6.42041    8.30821
       O    -9.01457   -5.78594    8.09196
      H1    -9.51585   -6.15745    7.34331
       H    -3.72463    1.91107   11.18310
       O    -4.61924    1.94495   10.64245
      H1    -5.08715    1.14836   10.96364
       H    -5.31244    0.49865    8.02195
       O    -4.90992    1.35065    7.77622
      H1    -4.27566    1.46685    8.48178
       H   -13.71001   -5.43224   14.65192
       O   -13.67869   -5.04760   13.75425
      H1   -14.56477   -4.66247   13.68305
       H   -11.35556   -2.20964    9.95100
       O   -11.80551   -2.70331    9.23166
      H1   -11.21211   -2.97962    8.49576

