126
frame 10 | Written by MDAnalysis XYZWriter (release 2.4.3)
       H   -13.71267   15.53516    3.51432
       O   -13.86890   15.58034    4.48825
      H1   -14.50344   16.31848    4.55193
       H   -12.05521    9.56841    3.06019
       O   -12.97775    9.72477    2.70839
      H1   -12.92437   10.48383    2.08497
       H   -16.89033   14.50699    5.48516
       O   -17.12458   13.70484    5.09286
      H1   -16.49458   13.42246    4.41714
       H   -13.65486   10.72287   11.62576
       O   -14.45024   10.34153   12.07741
      H1   -15.31788   10.64406   11.73913
       H   -18.65478   11.06609    8.96507
       O   -18.86395   10.31911    9.53515
      H1   -18.37139   10.54769   10.35478
       H   -12.91077   10.58839    6.49559
       O   -12.18222   10.10322    6.90535
      H1   -12.21819   10.09634    7.87473
       H   -15.13202    7.64850   10.88897
       O   -14.24916    8.07840   10.99399
      H1   -14.45370    8.96290   11.37894
       H   -18.28997   14.62507    4.00756
       O   -18.58982   15.30904    3.38918
      H1   -19.55309   15.51541    3.48247
       H   -16.32319    8.83345    7.87633
       O   -15.56849    8.91139    8.41578
      H1   -15.85975    8.88445    9.34076
       H   -13.92546   17.39116    2.74456
       O   -14.49671   17.99922    3.18670
      H1   -15.27296   17.96960    2.67117
       H   -18.43825   17.59680   10.08951
       O   -19.16430   18.20541   10.15253
      H1   -19.69292   18.03263    9.33857
       H   -17.10294    5.64564    3.33585
       O   -17.33557    5.30804    4.19728
      H1   -16.50737    4.98061    4.46424
       H   -17.96393   18.35278    2.72871
       O   -17.53407   17.87359    3.47196
      H1   -17.80894   16.95914    3.31222
       H   -18.32360   14.44881    0.50421
       O   -18.24953   13.71702    1.18333
      H1   -18.43533   14.18540    2.02440
       H   -16.52187   13.09775    1.79766
       O   -15.73975   13.11014    2.40007
      H1   -15.25203   12.34709    2.09350
       H   -15.32689   17.49409    6.22319
       O   -16.02119   17.00460    5.74782
      H1   -16.20171   17.59385    5.02419
       H   -12.35155    8.71178    5.80230
       O   -12.37674    7.97165    5.19322
      H1   -13.18268    7.53828    5.32716
       H   -16.58632   12.02209   11.44349
       O   -16.87863   11.17784   11.76566
      H1   -17.13244   11.26137   12.66826
       H   -18.67256    6.20143    5.31607
       O   -18.76883    6.88740    6.04658
      H1   -18.08633    7.50939    5.78576
       H   -15.47965    9.78144    1.33692
       O   -15.09566   10.32596    0.67083
      H1   -15.70388   10.59072   -0.05323
       H   -12.66740   14.83126    8.63280
       O   -12.31761   15.68786    8.49047
      H1   -11.33342   15.57882    8.27916
       H   -14.82405   15.46388    0.61202
       O   -14.38303   15.29050    1.49634
      H1   -14.83403   14.47525    1.77380
       H   -18.02675   12.30084    5.85819
       O   -18.70244   11.76815    6.27795
      H1   -18.33012   10.91071    6.53035
       H   -19.17619   12.39481   -1.48741
       O   -19.79805   12.30964   -0.71210
      H1   -19.25841   12.60739    0.01189
       H   -11.85521   13.50550    5.65313
       O   -10.97368   13.84896    5.93894
      H1   -10.52481   13.30479    6.57898
       H   -18.80112   13.90201    9.03679
       O   -17.95198   14.32186    8.83691
      H1   -18.26483   15.06419    8.30978
       H   -17.95565    6.22295    7.36172
       O   -17.60388    5.64995    8.02837
      H1   -18.33867    5.15481    8.39439
       H   -14.34916    6.09954    4.28880
       O   -14.79968    6.38068    5.06986
      H1   -14.95705    5.56801    5.56456
       H   -15.69223   14.41696   11.09446
       O   -16.06393   13.70705   10.64581
      H1   -16.86261   13.96280   10.11764
       H   -11.93120   12.01842    1.16076
       O   -12.73500   12.53874    1.37925
      H1   -13.38717   12.16424    0.76921
       H   -14.09121   13.73962    5.42426
       O   -13.72200   12.95194    5.84750
      H1   -14.15877   12.23832    5.41347
       H   -14.44647    8.39935    2.21848
       O   -15.36291    8.52132    2.56544
      H1   -15.95905    7.94135    2.09045
       H   -16.05641    7.72244    5.28524
       O   -16.62284    8.49201    5.49539
      H1   -16.88571    8.80141    4.58658
       H   -15.19362    9.62865    5.39369
       O   -14.47689   10.23144    5.12887
      H1   -13.98949    9.70189    4.44320
       H   -16.96969   15.93859    9.67759
       O   -16.82788   16.78867   10.11650
      H1   -16.20414   17.24791    9.53187
       H   -12.10064   16.46169    6.89218
       O   -12.15672   16.89824    6.04350
      H1   -12.57106   16.31443    5.42157
       H   -17.70845   16.53925    6.44213
       O   -18.41440   16.24891    7.02405
      H1   -18.86866   17.00845    7.31490
       H   -18.48310    8.78523    0.31146
       O   -17.90445    8.21887   -0.23518
      H1   -18.43198    7.52108   -0.60557
       H   -17.35335    9.97912   -1.15687
       O   -16.72413   10.41893   -1.64583
      H1   -17.07100   11.24807   -1.90891
       H   -16.53405    5.76607    0.83187
       O   -16.98036    6.36026    1.42540
      H1   -17.40330    7.01546    0.86391
       H   -13.09943   11.95398    9.77990
       O   -12.55718   11.28610   10.19211
      H1   -12.70824   10.43396    9.73575
       H   -14.78951   13.38002    9.33291
       O   -13.99544   13.22080    8.83992
      H1   -14.22080   13.04976    7.98083

