126
frame 7 | Written by MDAnalysis XYZWriter (release 2.4.3)
       H   -16.23299   12.56771   19.13993
       O   -16.00763   11.84674   18.56842
      H1   -15.52539   11.18171   19.09093
       H   -16.05118    6.36160    9.24010
       O   -15.87542    6.26370   10.19475
      H1   -16.73798    6.37602   10.73741
       H   -16.18618   12.45361   11.24917
       O   -16.50719   11.51447   11.22302
      H1   -17.24279   11.58375   11.86539
       H   -11.90982   13.81587   15.40987
       O   -12.29152   13.10345   14.89063
      H1   -11.52529   12.46948   14.71070
       H   -18.78250   11.35883    5.92395
       O   -19.08098   10.81896    6.69331
      H1   -19.23083   11.54843    7.34776
       H   -14.36035   11.70495   17.06049
       O   -13.93537   11.28380   16.29712
      H1   -13.28159   11.82969   15.85460
       H   -15.51834    7.98172   10.33192
       O   -15.21524    8.92151   10.17748
      H1   -15.80171    9.54669   10.59919
       H   -15.32274   14.32728   16.90660
       O   -15.48127   14.50095   15.93237
      H1   -15.80049   15.42898   15.94667
       H   -18.68246    5.69052   15.05781
       O   -17.95900    5.23376   15.60693
      H1   -17.81366    4.45358   15.09902
       H   -12.99775   16.22157    9.86176
       O   -13.64845   16.93849    9.86524
      H1   -13.78890   17.11268   10.83844
       H   -17.46595   16.93360    9.02316
       O   -17.98948   17.65147    9.33482
      H1   -18.76415   17.57691    8.81859
       H   -19.14757   18.37516   17.07397
       O   -18.56392   18.55765   16.30026
      H1   -18.70791   17.79521   15.67891
       H   -16.59418    6.22414   15.51418
       O   -15.74924    6.63109   15.51960
      H1   -15.28844    6.32610   14.69350
       H   -16.54409   17.69367   16.28504
       O   -15.86209   17.05380   16.24260
      H1   -14.93880   17.43559   16.38242
       H   -11.42582    9.83619   17.44009
       O   -12.28176    9.93674   17.82645
      H1   -12.76988   10.28203   17.07652
       H   -14.13347    9.68106   18.64188
       O   -14.46570    9.83287   19.55149
      H1   -15.11582    9.16648   19.67064
       H   -14.97735    9.95982   15.91702
       O   -15.80831    9.38505   15.92828
      H1   -15.51920    8.48365   15.82312
       H   -13.50377   14.73274   13.35630
       O   -14.13896   15.43934   13.61639
      H1   -14.42083   15.25518   14.50983
       H   -13.61595    9.05147   14.40519
       O   -13.19546    8.20067   14.63325
      H1   -13.29715    8.05669   15.57891
       H   -17.12058   10.27396   14.98825
       O   -17.93941   10.74451   14.71031
      H1   -18.26884   11.11283   15.57005
       H   -14.25971   11.58787   13.92287
       O   -14.53317   10.79210   13.43775
      H1   -15.01537   11.16587   12.73609
       H   -17.22365   13.51909   13.32456
       O   -18.09418   13.19640   13.52884
      H1   -17.96815   12.39761   14.09998
       H   -13.95675   16.90930   12.94438
       O   -14.01111   17.77536   12.55448
      H1   -13.31611   18.23833   13.02203
       H   -12.29356   13.48323   12.44534
       O   -12.80491   13.81389   11.68852
      H1   -13.10792   13.03200   11.20327
       H   -15.45409   16.38642   17.98500
       O   -15.07154   16.00179   18.79403
      H1   -15.20795   16.65870   19.54779
       H   -12.49415   11.90088   19.03064
       O   -13.10703   12.67701   19.01881
      H1   -12.54832   13.36266   18.63949
       H   -18.93862   15.66949   17.72517
       O   -18.19539   15.96813   18.32913
      H1   -18.19865   16.89337   18.26016
       H   -20.11622    8.86983   13.29013
       O   -19.67837    9.65731   12.96907
      H1   -18.95538    9.75243   13.55747
       H   -19.11020   13.17985    9.39733
       O   -18.97474   12.94555    8.44629
      H1   -18.97514   13.75880    7.96557
       H   -15.61956   18.67814   13.54330
       O   -16.45135   19.18147   13.63542
      H1   -16.19942   20.08776   13.32541
       H   -19.60788    6.88743   11.27821
       O   -18.83257    7.44802   11.30256
      H1   -18.97738    8.11005   12.07428
       H   -15.45249   14.68709   12.50745
       O   -16.19354   14.23818   12.06195
      H1   -16.64737   15.01237   11.57789
       H   -17.96438   15.54586   14.83477
       O   -18.60709   16.21100   14.54532
      H1   -18.37839   16.47788   13.57179
       H   -17.57758   11.24575   17.72496
       O   -18.49491   11.22081   17.41050
      H1   -18.92798   11.95684   17.89999
       H   -13.89495    8.72998   11.48641
       O   -13.01163    8.47429   11.70085
      H1   -13.04492    8.08813   12.59411
       H   -16.22645   14.75300   19.51735
       O   -16.85133   14.08961   19.75758
      H1   -17.65354   14.39592   19.27500
       H   -16.09622   14.87130    8.77713
       O   -15.98409   15.82401    8.85738
      H1   -15.18350   16.03595    9.40304
       H   -17.84022   17.32203   11.04105
       O   -17.66270   17.10841   11.98156
      H1   -17.21702   17.83595   12.43560
       H   -18.32182    9.81335    9.26849
       O   -19.09824    9.32320    9.43021
      H1   -18.94600    8.59655   10.09537
       H   -19.11043   13.50297   12.12170
       O   -19.62707   13.34411   11.30209
      H1   -19.93650   12.42020   11.24047
       H   -14.16454   12.35305    8.86980
       O   -13.47719   11.85698    9.32740
      H1   -13.28980   11.11070    8.73101
       H   -16.72629   12.65281    8.15898
       O   -15.87232   13.10636    8.31502
      H1   -15.44882   13.12266    7.43506

