126
frame 7 | Written by MDAnalysis XYZWriter (release 2.4.3)
       H   -16.66408   -5.13327   -1.32815
       O   -16.80733   -4.26439   -1.63639
      H1   -17.10699   -4.43613   -2.62161
       H   -14.61384  -14.25401   -0.72281
       O   -15.26167  -13.66188   -1.10049
      H1   -16.13325  -14.06347   -1.01871
       H   -16.55093   -7.48043   -1.15554
       O   -16.02728   -6.68882   -0.87766
      H1   -15.33414   -6.75771   -1.49290
       H   -16.74195   -5.11309   -7.74227
       O   -17.39835   -5.41173   -7.08554
      H1   -17.31417   -4.94357   -6.25010
       H   -14.81016   -9.87983   -0.06581
       O   -14.73952   -9.88496   -0.98508
      H1   -14.82849  -10.81915   -1.10897
       H   -13.55684   -4.12521   -4.51949
       O   -14.49648   -3.80970   -4.37384
      H1   -15.00147   -4.64986   -4.31396
       H   -10.77629   -7.39699   -5.34782
       O   -10.83043   -7.02658   -4.47083
      H1   -11.18609   -6.16283   -4.51558
       H    -9.14013   -6.11522   -4.40688
       O    -8.57177   -5.48700   -3.98775
      H1    -7.79486   -5.63770   -4.50861
       H   -15.39930   -5.04789   -9.48615
       O   -16.25921   -4.71134   -9.20082
      H1   -16.18856   -3.72375   -9.15661
       H    -9.77936  -13.45659   -1.14790
       O    -9.43001  -12.55363   -1.06974
      H1   -10.14525  -11.93939   -1.17616
       H   -13.03605   -8.44038   -9.83283
       O   -13.08287   -7.47068   -9.79677
      H1   -12.26334   -7.23167  -10.27170
       H   -18.84474   -6.97682   -1.33624
       O   -19.39924   -6.16989   -1.16838
      H1   -19.16235   -5.87984   -0.27590
       H   -16.82393   -9.33427   -1.33350
       O   -17.50178   -8.71411   -1.16240
      H1   -17.81418   -8.73004   -0.21070
       H   -18.49335   -4.76909   -4.53839
       O   -17.65447   -4.34945   -4.58117
      H1   -17.93027   -3.47679   -4.88039
       H   -14.56113   -7.10511   -7.96175
       O   -15.16620   -7.46384   -7.30155
      H1   -15.96675   -6.86887   -7.26996
       H   -14.83743   -9.30150   -4.47284
       O   -14.17258   -8.65766   -4.76357
      H1   -14.44758   -8.33588   -5.59943
       H   -12.34258   -5.20254   -8.68753
       O   -12.45938   -5.16631   -7.73053
      H1   -12.06151   -5.95178   -7.39223
       H    -9.87435  -10.95557   -6.48432
       O    -9.71277  -11.33278   -5.62845
      H1   -10.52439  -11.15081   -5.11527
       H   -11.12108   -8.74408   -7.57641
       O   -10.95246   -8.05266   -6.94262
      H1   -10.11106   -7.72790   -7.24872
       H   -16.67549  -10.35710   -5.35281
       O   -16.36585  -10.38053   -4.43718
      H1   -17.02029  -10.61002   -3.79708
       H   -11.64259   -4.11323   -4.89836
       O   -11.97232   -4.67239   -4.16071
      H1   -11.73872   -4.11665   -3.36795
       H   -18.12207   -7.93563   -9.29024
       O   -18.16658   -8.00365  -10.26146
      H1   -17.25871   -7.80450  -10.52925
       H   -17.48994  -12.40749   -2.49180
       O   -17.72562  -11.48030   -2.53081
      H1   -18.67510  -11.43356   -2.40950
       H   -12.78097   -9.73373   -4.44574
       O   -12.23528  -10.54432   -4.18619
      H1   -12.96884  -11.20068   -3.99719
       H    -8.45981   -9.30421   -3.34301
       O    -9.07875   -8.82606   -2.78486
      H1    -9.59804   -8.21856   -3.28362
       H   -15.07629   -7.28477  -10.70764
       O   -15.79037   -6.97257  -11.25276
      H1   -15.76286   -7.58283  -12.06493
       H   -15.20292  -11.88774   -4.18931
       O   -14.44825  -12.45397   -4.01326
      H1   -14.63068  -12.82092   -3.15335
       H   -19.15807   -9.12642   -3.30393
       O   -19.59758   -8.59790   -4.04397
      H1   -19.55126   -7.65898   -3.79490
       H   -13.37849   -7.30689   -3.17199
       O   -13.38965   -6.47468   -2.66948
      H1   -12.68705   -6.05059   -3.06976
       H   -13.67616  -12.92007   -7.05759
       O   -13.22551  -13.72333   -6.69609
      H1   -12.26207  -13.44557   -6.67943
       H   -19.64619  -10.79949   -8.23159
       O   -18.79728  -11.28009   -8.06488
      H1   -19.02760  -11.76116   -7.29505
       H   -19.23215   -8.18601   -6.28170
       O   -19.15723   -7.66725   -7.10270
      H1   -18.50741   -6.89042   -6.92213
       H   -17.13190   -5.62617    1.53821
       O   -16.24523   -6.06559    1.66156
      H1   -15.95591   -6.48737    0.80787
       H   -11.80566  -10.49764   -9.66235
       O   -12.63657  -10.04768   -9.79477
      H1   -13.27687  -10.67214   -9.50176
       H   -14.84196  -12.10846   -9.41753
       O   -14.45503  -11.76683   -8.59432
      H1   -15.04997  -11.07483   -8.25916
       H   -14.68330  -14.59240   -4.34421
       O   -14.87171  -15.37336   -3.86890
      H1   -14.03349  -15.63348   -3.48371
       H    -9.07861   -9.91901   -9.24845
       O    -9.69168  -10.31762   -8.61035
      H1   -10.01159  -11.16262   -8.94326
       H   -10.30180   -9.68264   -1.89031
       O   -11.02126  -10.16494   -1.52495
      H1   -11.58728  -10.45912   -2.25401
       H   -17.36474   -9.92056   -7.61296
       O   -16.46414   -9.81757   -7.25721
      H1   -16.14516   -8.93623   -7.51257
       H   -12.17058  -13.49230   -4.33935
       O   -11.73265  -13.87108   -3.56446
      H1   -11.89297  -14.82003   -3.75083
       H   -12.19136   -3.44328   -6.80576
       O   -11.51554   -2.87334   -6.38543
      H1   -10.65314   -3.23723   -6.58232
       H   -12.71477   -7.09232   -0.87322
       O   -12.41943   -7.60539   -0.08099
      H1   -12.25837   -8.48683   -0.44866

