126
frame 3 | Written by MDAnalysis XYZWriter (release 2.4.3)
       H     8.63830  -12.13509   10.89053
       O     9.25843  -12.84724   10.71073
      H1     8.65808  -13.51292   10.33229
       H    12.46055   -6.43833   10.11577
       O    11.48859   -6.60716   10.09780
      H1    11.02344   -5.75877   10.15672
       H     6.27561  -10.18726    8.66036
       O     5.95835  -10.44106    9.54642
      H1     6.73137  -10.26060   10.14546
       H    10.25103   -3.84922   16.37892
       O    10.26205   -4.16096   17.31681
      H1    10.17232   -5.13815   17.30038
       H     9.40160  -13.81606   14.55397
       O     9.93416  -14.20119   15.26807
      H1     9.33265  -14.88038   15.61082
       H     7.61964   -9.86304   12.54759
       O     7.88492  -10.06106   11.61121
      H1     8.69378   -9.52645   11.54900
       H     3.90370   -3.12409   13.73164
       O     4.45895   -3.94156   13.64213
      H1     3.91849   -4.66447   13.93792
       H     5.46199   -3.68675    8.60457
       O     6.20537   -3.87283    9.21697
      H1     5.92735   -4.49902    9.92002
       H    13.15350  -10.84088   15.69121
       O    12.62632  -10.28728   15.08720
      H1    12.08683  -10.83343   14.48388
       H     1.03317   -8.41235   13.16794
       O     1.73198   -8.50613   13.82807
      H1     2.53803   -8.10103   13.48006
       H     8.87740   -7.89770   14.53253
       O     9.62722   -7.47354   14.06903
      H1     9.84954   -8.18810   13.42463
       H    12.84917   -7.08261   15.23238
       O    12.02828   -6.71923   15.50418
      H1    11.41209   -7.11930   14.91185
       H    13.04816   -3.65093   13.74259
       O    12.41260   -3.08065   13.31534
      H1    12.56240   -3.16701   12.33484
       H    11.69107  -10.21538   16.76729
       O    11.42275  -10.14296   17.70487
      H1    11.52651  -11.02726   18.02650
       H    12.60164   -8.92633   18.50256
       O    13.26569   -8.41167   19.01916
      H1    12.91450   -7.69948   19.57320
       H     6.26326   -4.52320   16.05761
       O     6.70434   -4.36968   15.22649
      H1     5.95724   -4.04694   14.66728
       H    14.92603   -8.36744   15.55780
       O    14.22716   -8.20182   14.84953
      H1    13.69944   -8.99710   14.75839
       H     8.51585   -6.51847   12.91026
       O     7.97496   -6.21587   12.10048
      H1     8.58301   -6.34639   11.35242
       H     7.03256  -11.87858   19.23566
       O     6.62947  -11.79341   18.39510
      H1     7.43112  -11.52578   17.87839
       H    10.16545  -11.74924   11.98763
       O    10.81956  -11.24339   12.54090
      H1    11.63070  -11.48130   12.04129
       H     4.76506   -9.74818   14.69044
       O     5.02829   -9.48980   13.80193
      H1     4.67748  -10.14945   13.15240
       H    10.80486   -9.48202   11.68035
       O    10.23401   -8.71789   11.61562
      H1    10.74809   -7.93454   11.31497
       H     8.94333   -7.17333   17.54778
       O     9.83955   -6.75645   17.80143
      H1    10.49032   -7.25852   17.28855
       H     3.70877   -7.08952   10.95262
       O     3.16146   -7.34800   10.21292
      H1     2.26229   -7.17061   10.51371
       H     3.31677   -9.99813   16.30592
       O     4.15732  -10.44150   16.10000
      H1     4.47887  -10.75535   16.97900
       H     8.03957  -12.01751   13.74769
       O     8.18351  -12.89643   13.51992
      H1     7.53631  -13.19530   12.90289
       H     7.60012   -2.31857   17.46946
       O     8.19265   -2.63834   18.12734
      H1     8.74317   -3.32121   17.77744
       H     5.82290   -8.92570   19.73096
       O     5.78614   -9.23852   18.81150
      H1     6.09176  -10.15163   18.78199
       H    12.16772   -4.09085   17.80271
       O    13.10663   -4.04379   17.64181
      H1    13.27728   -3.77260   16.70490
       H     8.45794   -4.37049   12.05357
       O     8.62740   -3.40836   12.20399
      H1     8.80793   -3.30350   13.14631
       H     5.14782   -4.83705   12.26053
       O     5.35330   -5.46668   11.54115
      H1     6.23946   -5.79857   11.76954
       H     4.57065   -6.54577   12.90218
       O     3.94668   -7.13885   13.35276
      H1     4.51798   -7.92105   13.33505
       H     4.56727   -7.89771   18.15395
       O     3.86202   -7.27685   18.01521
      H1     4.26967   -6.45949   17.60782
       H     5.06073  -11.61790   10.88021
       O     4.59577  -11.82927   11.70131
      H1     3.80485  -12.18773   11.33027
       H     8.20894   -9.40140   17.05325
       O     8.65104  -10.28451   17.01983
      H1     9.59512  -10.06554   17.19201
       H     7.79692  -10.36230   15.39093
       O     7.55099  -10.22624   14.47678
      H1     6.59551  -10.08154   14.43669
       H     7.34178   -0.98152   15.68112
       O     6.70944   -1.61899   16.09928
      H1     6.83972   -2.44790   15.63036
       H     3.80010   -4.36301   16.82589
       O     4.60999   -4.71766   17.19295
      H1     4.95237   -4.02467   17.79697
       H     5.32508   -6.97626   15.05161
       O     6.25200   -6.84155   14.76905
      H1     6.40432   -5.86349   14.86960
       H     7.02809   -7.56246   16.28132
       O     7.36866   -7.84992   17.17791
      H1     6.65218   -8.29219   17.66996
       H     9.34308   -3.98979    9.25594
       O     9.90154   -4.09437   10.04588
      H1     9.49169   -3.55927   10.81667
       H    10.61987   -3.31925   14.07318
       O     9.86702   -3.05212   14.60670
      H1     9.87240   -2.12731   14.78597

