126
frame 2 | Written by MDAnalysis XYZWriter (release 2.4.3)
       H   -15.42119   12.66123   17.76273
       O   -15.48923   11.73933   17.47884
      H1   -15.42997   11.23020   18.32410
       H   -16.85195   13.87995   11.43755
       O   -17.28532   13.08115   11.84917
      H1   -18.10759   12.99042   11.30342
       H    -8.44887   15.15555   13.61409
       O    -8.15671   14.26206   13.68511
      H1    -8.17349   14.00477   14.58743
       H   -11.15714   19.59483   18.46841
       O   -10.62903   18.85946   18.19213
      H1    -9.90116   19.19270   17.60451
       H    -8.76379   13.93985   16.93093
       O    -7.97572   14.39003   16.60693
      H1    -8.19061   15.30806   16.65413
       H   -14.73557   11.83951   15.81803
       O   -14.11613   11.89749   15.09259
      H1   -14.23202   12.74660   14.72632
       H   -13.45128   15.12584   14.20682
       O   -14.02060   14.46035   13.76735
      H1   -14.88964   14.82896   14.09459
       H    -6.89278   17.09998   11.28303
       O    -7.40480   16.31653   11.45312
      H1    -6.79871   15.60197   11.59387
       H   -17.76126   18.61984    8.14498
       O   -17.21102   17.91735    7.63509
      H1   -17.37800   17.08495    8.13753
       H   -10.14719   16.99196    9.94585
       O    -9.40814   16.78056    9.35837
      H1    -8.70264   16.43419    9.92469
       H   -13.25111   16.43398    8.14037
       O   -12.94370   17.24128    8.50812
      H1   -12.32891   16.98762    9.18990
       H   -17.88622   16.47492   10.25191
       O   -18.43771   16.96858   10.85588
      H1   -19.25408   17.11669   10.37702
       H   -18.85917   16.92518   17.36826
       O   -18.36465   16.22681   16.95004
      H1   -19.01269   15.61032   16.63760
       H   -12.26502   17.81822   17.64207
       O   -13.02922   17.23449   17.45017
      H1   -13.73231   17.81024   17.32659
       H   -15.60527   18.28809   17.50359
       O   -15.34697   18.36267   16.56165
      H1   -15.24176   19.36488   16.49354
       H   -11.36226   10.97731   16.16383
       O   -11.07276   11.70969   15.55997
      H1   -11.85363   11.99705   15.14493
       H   -13.82063   11.21908   13.36902
       O   -13.69592   10.93879   12.43737
      H1   -14.16535   10.09152   12.56284
       H   -11.75633   13.85553   11.42447
       O   -12.49084   14.53283   11.47296
      H1   -12.85678   14.28936   12.36364
       H   -14.14928    9.90055   15.70374
       O   -13.96434    8.98699   15.54727
      H1   -14.04483    8.64757   16.46920
       H   -13.99259   14.45513    7.04758
       O   -14.33116   15.35816    7.13440
      H1   -15.14215   15.15452    7.63142
       H   -13.50946   13.76270   10.05506
       O   -14.06099   13.35804    9.34905
      H1   -14.75749   12.75641    9.74209
       H   -17.66374   12.75075   13.79447
       O   -17.77906   13.06280   14.70428
      H1   -18.03447   12.31656   15.21503
       H   -11.74362   16.10302   11.22741
       O   -11.63674   17.01085   10.96324
      H1   -11.90146   17.59487   11.68259
       H   -12.46810   16.35774   15.61276
       O   -12.27986   16.11540   14.75060
      H1   -11.46699   15.58454   14.74829
       H   -10.10142   12.11271   10.57898
       O   -10.83050   12.68494   10.38056
      H1   -10.68265   13.06831    9.47650
       H   -11.49059   12.98482   16.81128
       O   -12.02066   13.59185   17.32265
      H1   -11.43925   14.27714   17.70429
       H    -5.84096   17.58550   14.34263
       O    -6.28622   18.22163   14.87282
      H1    -6.08617   19.12292   14.58640
       H   -16.02385   19.44468   19.34584
       O   -15.20998   18.90766   19.31792
      H1   -14.48432   19.59806   19.24221
       H   -16.62187   14.48285   15.20495
       O   -16.19388   15.28190   15.50708
      H1   -16.88717   15.75616   16.04142
       H   -16.23852   18.90905   14.64538
       O   -16.34900   19.78152   14.22317
      H1   -15.61024   19.73365   13.60933
       H    -8.69286   17.13085   12.85636
       O    -9.33632   17.23241   13.57519
      H1   -10.04486   17.77058   13.31558
       H   -14.10240   16.50706   10.91048
       O   -15.04531   16.59123   10.67988
      H1   -15.25922   17.56311   10.60962
       H   -18.25201   15.57960   13.78047
       O   -19.10402   15.86514   13.37278
      H1   -18.76241   16.27819   12.58462
       H   -15.98993   18.76348    8.87980
       O   -15.31182   18.95554    9.55463
      H1   -14.62227   18.31091    9.29152
       H   -17.30354   11.44445   17.19471
       O   -18.20101   11.30677   16.88590
      H1   -18.63433   11.84698   17.56066
       H    -9.73071   18.60310    9.01403
       O    -9.93783   19.50240    9.00593
      H1    -9.28968   20.07257    9.48755
       H   -14.12122   14.40827   17.88841
       O   -15.06201   14.35846   18.05572
      H1   -15.38013   15.05246   17.43675
       H    -8.82550   17.13064   15.27145
       O    -8.41502   17.07249   16.10876
      H1    -7.60740   17.53944   15.90097
       H   -17.16130   14.57142    8.51566
       O   -16.78237   15.43539    8.79299
      H1   -16.00733   15.25526    9.34405
       H   -12.00254   18.08121   14.11390
       O   -11.58585   18.60186   13.40102
      H1   -11.84779   19.50740   13.60202
       H   -18.22076   18.54283   11.56580
       O   -18.01797   19.47293   11.72386
      H1   -17.21233   19.43224   12.28590
       H   -16.29599   11.71210   10.66165
       O   -15.93385   11.39798    9.86294
      H1   -16.37200   11.77158    9.06930

