126
frame 1 | Written by MDAnalysis XYZWriter (release 2.4.3)
       H   -11.17708   11.24616  -14.31750
       O   -12.02161   11.56996  -14.66063
      H1   -12.38280   12.11080  -13.93580
       H    -4.64368   13.79214  -10.39964
       O    -5.36339   13.91366  -11.01972
      H1    -5.26792   13.37826  -11.84491
       H    -6.73384   13.95164  -15.41081
       O    -6.59848   13.90429  -16.38411
      H1    -5.68956   14.20592  -16.53023
       H    -4.04856   19.44454  -11.66729
       O    -4.91768   19.07247  -11.59700
      H1    -5.50577   19.79265  -11.30568
       H   -11.23438   12.30790  -10.63974
       O   -12.06322   12.08306  -10.11660
      H1   -12.65057   12.67916  -10.58174
       H   -13.98098   13.36259  -13.48998
       O   -13.90215   12.65773  -12.84994
      H1   -14.54122   12.01123  -13.11587
       H   -14.93530   15.52470  -13.09064
       O   -15.05556   15.77381  -12.14985
      H1   -15.52721   15.04719  -11.75870
       H    -5.87575   18.96410  -15.84903
       O    -5.88728   19.49818  -14.99301
      H1    -5.56602   18.98454  -14.25340
       H   -10.33567   15.81366   -9.68087
       O   -10.98847   15.44371  -10.31161
      H1   -10.97871   16.00755  -11.06756
       H    -8.19682   11.55733  -17.08695
       O    -8.91108   11.77903  -16.51861
      H1    -9.70885   11.46186  -16.92972
       H   -14.92050   19.73330  -16.86864
       O   -15.15220   18.82448  -16.73461
      H1   -15.18735   18.58361  -17.69059
       H   -10.91125   15.77435  -13.78703
       O   -11.46686   15.42809  -14.50085
      H1   -10.84086   15.00265  -15.05876
       H    -6.06568   17.48115  -17.81409
       O    -6.42095   18.18410  -17.27488
      H1    -6.69030   18.89501  -17.88947
       H    -7.03005   13.66460  -10.37634
       O    -7.91907   13.39077  -10.15069
      H1    -8.53383   13.40572  -10.92030
       H   -10.80179   17.50142  -13.22702
       O   -10.43358   17.06164  -12.47501
      H1    -9.50489   17.28374  -12.47609
       H   -10.89673   16.51309   -6.46030
       O   -11.59002   15.92608   -6.80585
      H1   -12.27440   16.47707   -7.16365
       H   -13.38988   15.14030  -14.76253
       O   -14.28502   14.87463  -14.60514
      H1   -14.62560   14.71656  -15.51305
       H    -7.00235   19.39511   -9.09607
       O    -7.71421   19.59631   -9.64759
      H1    -8.47134   19.06678   -9.45590
       H    -6.92984   16.72396  -13.04905
       O    -7.86022   16.55266  -13.23087
      H1    -8.03535   16.75231  -14.20382
       H    -7.72396   17.50475  -16.26207
       O    -8.51882   17.05281  -15.88067
      H1    -9.07939   17.74012  -15.41723
       H   -12.40317   16.07016  -10.23368
       O   -13.19374   16.65842  -10.11748
      H1   -13.88973   16.40072  -10.74637
       H   -13.34295   16.67279  -19.77032
       O   -13.70222   16.30899  -18.96667
      H1   -14.58914   16.04662  -19.22817
       H   -12.36719   17.18187  -17.83765
       O   -11.81020   17.16089  -17.05844
      H1   -11.62300   16.23535  -16.95798
       H    -8.53615   15.43823   -7.93483
       O    -8.47517   15.94501   -8.77186
      H1    -8.18075   15.24717   -9.38539
       H   -13.59919   12.98057  -18.71372
       O   -13.22096   13.49539  -17.98989
      H1   -13.32182   14.40443  -18.27413
       H   -15.71623   20.16921  -11.17585
       O   -15.41963   19.38777  -10.73898
      H1   -16.23264   18.98095  -10.42510
       H    -9.08547   15.13762  -16.54861
       O    -9.64893   14.44342  -16.79333
      H1    -9.24519   13.63699  -16.46883
       H    -9.30620   16.92096  -17.93831
       O    -9.35454   16.79607  -18.91223
      H1    -9.50212   17.52237  -19.44459
       H    -7.41843   13.21374  -13.58018
       O    -8.07330   13.89327  -13.83184
      H1    -7.82973   14.75801  -13.43573
       H   -18.00805   18.13974  -16.28422
       O   -17.55978   18.67888  -15.64392
      H1   -16.63966   18.59490  -16.01022
       H   -11.69249   12.90803   -8.62698
       O   -11.68960   13.19478   -7.70358
      H1   -11.49765   14.12292   -7.61548
       H   -13.93622   18.28052   -7.51892
       O   -13.98303   17.32227   -7.37942
      H1   -13.81417   17.14356   -8.32085
       H   -12.33358   18.03481  -15.55583
       O   -12.26853   18.37639  -14.66861
      H1   -13.18882   18.53872  -14.41186
       H   -10.73924   18.96615  -14.56638
       O    -9.78407   19.17175  -14.62591
      H1    -9.67924   20.05102  -14.21753
       H   -11.36363   18.54792  -11.65402
       O   -12.12563   19.00419  -11.20989
      H1   -12.79602   18.33904  -10.93321
       H    -9.44027   13.29861  -12.65511
       O    -9.93440   13.26974  -11.83415
      H1   -10.24892   14.13288  -11.61342
       H   -14.87473   17.39041  -13.47227
       O   -14.83836   18.38851  -13.32900
      H1   -15.06956   18.54787  -12.41058
       H    -8.82748   11.47968  -14.42638
       O    -9.20636   10.96671  -13.67216
      H1    -8.62433   11.06573  -12.96705
       H    -9.61066   15.03269  -19.44518
       O    -9.62835   14.08275  -19.66736
      H1    -9.53335   13.72929  -18.76500
       H    -5.30067   15.63150  -11.62936
       O    -5.27070   16.44401  -12.14937
      H1    -5.42532   17.17896  -11.50817
       H    -7.79212   11.78928  -10.65412
       O    -7.46226   10.98547  -11.12517
      H1    -7.80802   10.24131  -10.60096
       H   -10.07874   19.33839  -16.28998
       O   -10.23252   19.31689  -17.25908
      H1   -10.83204   18.53710  -17.39889

