129
frame 1 | Written by MDAnalysis XYZWriter (release 2.4.3)
       H   -18.05040    0.20878   10.47884
       O   -18.70549   -0.14252   11.11262
      H1   -18.79780    0.54676   11.81666
       H   -16.69688    7.99625    9.97209
       O   -16.64832    7.55863   10.85923
      H1   -17.50406    7.10902   11.11857
       H   -18.22013    5.64581   19.45976
       O   -17.42765    6.11456   19.88326
      H1   -17.30546    6.84336   19.30164
       H   -10.56908    5.93250   13.73452
       O   -11.05736    6.07382   14.53677
      H1   -11.19534    7.02730   14.64132
       H   -13.05900    3.34436   13.15331
       O   -13.23164    2.47163   13.57922
      H1   -12.49759    2.10996   13.99620
       H   -12.32067    8.47599   13.01915
       O   -12.79697    8.02213   12.33020
      H1   -12.91819    7.08412   12.64551
       H   -13.10635    3.56947   17.22548
       O   -12.22466    3.18352   17.25448
      H1   -11.87899    3.35379   18.16457
       H   -14.32889   -0.42503   15.02125
       O   -13.36338   -0.50372   15.03332
      H1   -13.26977   -1.06872   14.24577
       H   -15.72236    6.23940   10.32492
       O   -15.05380    5.62470    9.86524
      H1   -14.70038    5.09189   10.57397
       H   -14.00333    5.36199   14.00391
       O   -13.47223    5.15469   13.21927
      H1   -12.54624    5.37415   13.55785
       H   -18.81385    4.68618   15.20259
       O   -18.05606    4.79784   14.59653
      H1   -17.46597    4.03318   14.88852
       H   -15.45859    2.72492   15.68415
       O   -14.91054    3.48237   15.50130
      H1   -14.26969    3.14700   14.77429
       H   -19.10259    2.38771   13.02406
       O   -19.05778    2.38403   12.08229
      H1   -18.23856    2.76698   11.83050
       H   -17.51964    6.40051   14.31238
       O   -17.37616    7.31386   14.61733
      H1   -16.87142    7.76940   13.92909
       H   -14.72192    1.77415   13.00527
       O   -15.59600    1.24348   12.81465
      H1   -15.42164    0.66935   12.05759
       H    -7.91547    2.51941   12.99146
       O    -8.83366    2.76881   12.98184
      H1    -9.20362    2.27726   12.21747
       H   -13.99884   10.49634   14.95786
       O   -13.41763   10.12301   15.59096
      H1   -14.10821    9.58144   16.06882
       H    -8.04155    2.94237   15.53438
       O    -7.21697    3.49276   15.62525
      H1    -6.98809    3.93475   14.85799
       H   -17.73582    7.80310   16.56316
       O   -18.19249    8.04389   17.36808
      H1   -18.27643    9.01345   17.33397
       H    -8.71795    5.74637   12.16308
       O    -9.54658    5.31197   12.43676
      H1    -9.46266    4.36792   12.64206
       H   -15.26066    1.03967    9.13109
       O   -14.34810    1.31803    8.85096
      H1   -13.85279    0.50360    8.68421
       H   -15.79496    0.10948   14.20246
       O   -16.03241   -0.27462   15.02592
      H1   -16.20916   -1.21052   14.79911
       H   -16.64882   -2.57726   19.20861
       O   -17.14315   -1.76077   19.23051
      H1   -18.06818   -1.99993   19.00056
       H   -12.99894    6.58847   16.95159
       O   -13.02756    7.40915   17.53156
      H1   -12.10999    7.45660   17.77394
       H    -9.50405   -0.97025   19.06584
       O   -10.31032   -0.49288   18.82657
      H1   -10.90851   -0.99930   18.31014
       H   -15.92905    9.04906   11.88705
       O   -15.22817    9.49161   12.41470
      H1   -14.41606    8.99000   12.18998
       H   -12.14398    3.76224    9.94213
       O   -12.91128    3.55560   10.53634
      H1   -13.46364    2.95627    9.98796
       H   -14.94123    5.11110   18.54655
       O   -14.38083    4.39163   18.89615
      H1   -13.53257    4.86578   19.12660
       H   -12.79723   -3.19355   13.54791
       O   -12.80438   -2.33477   13.13694
      H1   -11.94021   -2.23607   12.65927
       H   -12.21358   -1.31664   16.21582
       O   -11.65669   -1.83510   16.76252
      H1   -11.06185   -2.25803   16.14111
       H   -19.86410    5.77045   10.82521
       O   -19.39622    6.65051   11.08121
      H1   -19.88653    6.92115   11.90768
       H   -16.20200   -2.75555   16.10411
       O   -16.48384   -3.00575   15.22225
      H1   -17.41710   -3.09739   15.32597
       H   -12.19254    9.09164   15.09375
       O   -11.36868    8.82672   14.57482
      H1   -10.75334    9.47510   14.93048
       H    -9.87088   -1.03654   14.25074
       O    -9.39646   -0.49217   13.69777
      H1    -9.23365    0.35764   14.09022
       H    -9.92733    1.68176   16.08000
       O    -9.09041    1.77480   16.55670
      H1    -8.72727    0.86374   16.55958
       H   -14.24406    7.85103   18.90183
       O   -15.14032    7.88712   19.29536
      H1   -15.11928    7.15262   19.93815
       H   -11.27232    0.65055   10.95296
       O   -10.44167    0.90936   11.41427
      H1   -10.82486    0.93957   12.30206
       H   -15.61845    6.58055   15.54910
       O   -14.78679    6.05568   15.47147
      H1   -15.03078    5.17872   15.73034
       H   -10.51634    5.52821   17.68691
       O   -10.21499    6.30780   17.24127
      H1   -10.37035    6.06209   16.30951
       H   -18.66714    3.00597   18.83521
       O   -18.20968    2.24056   18.54169
      H1   -17.39850    2.29601   19.05179
       H   -17.78460    1.94299   16.81544
       O   -17.51891    1.88474   15.88469
      H1   -16.96331    1.15184   15.75758
       H   -14.58287   -3.80469   17.30932
       O   -14.91883   -3.00871   17.80476
      H1   -14.12538   -2.43141   17.83230
       H   -11.63707    2.02446   15.84361
       O   -11.38247    1.44016   15.15113
      H1   -11.94700    0.64281   15.04995

