129
frame 0 | Written by MDAnalysis XYZWriter (release 2.4.3)
       H   -15.65887    0.50158   -6.25144
       O   -15.08761   -0.20930   -6.62470
      H1   -14.55079    0.16609   -7.28327
       H   -16.57198   -4.89390   -0.94643
       O   -16.92451   -5.26730   -1.78488
      H1   -16.42922   -5.03200   -2.50549
       H    -9.76672   -1.89735    1.84934
       O    -8.83416   -2.07119    2.09226
      H1    -8.52570   -1.37350    2.68874
       H   -14.23965   -4.93799   -3.65149
       O   -15.19109   -5.00493   -3.96666
      H1   -15.19186   -5.75945   -4.60588
       H   -12.52027   -2.82726   -1.63721
       O   -12.44168   -1.93734   -1.25625
      H1   -11.99123   -2.19004   -0.43089
       H    -8.90134   -7.17954   -5.01253
       O    -8.54963   -6.75294   -4.19346
      H1    -8.59261   -5.81616   -4.17270
       H   -14.54214   -1.98039   -6.33146
       O   -14.35987   -2.93994   -6.43792
      H1   -13.80041   -2.94474   -7.22457
       H    -9.06085   -2.84291   -4.23210
       O    -8.39146   -2.52603   -4.85543
      H1    -8.40196   -3.21865   -5.56395
       H   -14.85944   -3.23187   -3.63781
       O   -15.07392   -2.46083   -3.06084
      H1   -14.38602   -1.79611   -3.29291
       H    -9.26408   -5.07585    2.82187
       O    -9.20123   -4.41820    3.51217
      H1    -9.21400   -3.60282    2.97181
       H   -15.69090   -3.86716   -7.12827
       O   -16.52029   -4.19100   -7.52051
      H1   -17.13832   -3.43848   -7.46286
       H   -11.98975    0.47552    2.41673
       O   -11.44300    1.30165    2.43411
      H1   -10.85653    1.05868    1.69604
       H   -13.66976   -0.99432    3.64388
       O   -13.41377   -0.97456    2.71581
      H1   -14.21349   -0.77895    2.21434
       H   -14.32098    0.98307   -0.37444
       O   -14.96227    1.34550    0.35652
      H1   -15.52426    0.58632    0.63170
       H   -10.66062   -4.02461    4.33986
       O   -11.13730   -3.45602    5.03603
      H1   -11.39304   -4.09504    5.78008
       H    -8.46367   -5.27136   -0.43969
       O    -8.93026   -4.49050   -0.16542
      H1    -8.23732   -3.96279    0.29156
       H   -18.08219   -2.59669   -5.59136
       O   -18.18876   -2.38285   -4.66882
      H1   -17.27767   -2.54703   -4.29774
       H   -14.86040   -4.02135    4.20828
       O   -15.46232   -3.52047    3.62623
      H1   -15.19041   -3.73337    2.71168
       H   -13.31204    0.29344   -3.65949
       O   -13.40132   -0.55955   -4.13113
      H1   -13.92650   -0.33485   -4.90471
       H   -12.98116    4.11427    1.04808
       O   -13.85388    3.75924    0.87304
      H1   -13.79399    2.81200    0.89522
       H   -12.14712   -8.65633   -4.60602
       O   -11.94541   -7.82190   -4.15137
      H1   -11.32414   -8.07242   -3.41521
       H   -10.27122    2.00856   -1.43669
       O   -10.81324    2.59111   -2.04004
      H1   -10.87694    2.17686   -2.93030
       H   -11.59336   -4.34049   -5.40973
       O   -11.37428   -3.59499   -4.77791
      H1   -12.10389   -3.00206   -4.97473
       H   -16.01070   -7.88482   -1.51015
       O   -16.96945   -7.98218   -1.46840
      H1   -17.24356   -7.07179   -1.57448
       H    -8.80846   -0.02221   -6.76942
       O    -9.57769   -0.57253   -6.63229
      H1    -9.32878   -1.17629   -5.88224
       H   -11.37642   -3.32459    1.37335
       O   -11.42517   -2.34920    1.33412
      H1   -12.17186   -2.14370    1.93484
       H   -11.49590   -3.04164   -7.50004
       O   -11.98368   -2.86745   -8.33004
      H1   -11.37216   -2.48630   -8.92543
       H   -11.87962   -5.65952    0.80090
       O   -11.25198   -5.27831    1.44052
      H1   -10.55640   -5.00266    0.83790
       H    -6.29405   -0.11937   -3.80979
       O    -6.98980   -0.42220   -3.29303
      H1    -7.44057   -1.13031   -3.74070
       H    -8.02608   -1.79196   -0.93101
       O    -7.60250   -1.22755   -0.23980
      H1    -7.96614   -1.64847    0.58140
       H   -16.98370   -1.09069    2.19796
       O   -16.13591   -0.96394    1.76515
      H1   -16.15085   -1.30387    0.84117
       H   -15.68566   -2.11785   -1.48932
       O   -16.11116   -1.94805   -0.63869
      H1   -17.05864   -2.03480   -0.78650
       H   -12.12188   -5.44242   -2.01973
       O   -12.45936   -4.56368   -2.31538
      H1   -11.82076   -4.30381   -3.00224
       H   -12.26953    1.38427   -1.54223
       O   -13.03001    0.77752   -1.54481
      H1   -12.73102   -0.08650   -1.55200
       H   -10.42077   -1.97665   -2.11946
       O    -9.50629   -2.44720   -2.09928
      H1    -9.54384   -3.31834   -1.61777
       H   -14.40447    2.56636   -2.18568
       O   -14.96584    2.95001   -2.84752
      H1   -14.75267    2.50575   -3.67067
       H   -16.46118    0.85766   -1.88176
       O   -16.94153    1.27639   -2.61707
      H1   -16.38578    1.99394   -2.87309
       H   -11.62313   -0.05763   -4.23710
       O   -10.84230    0.44433   -4.48660
      H1   -10.44380    0.05077   -5.29393
       H   -12.87105   -7.64838   -2.41489
       O   -12.81663   -7.41596   -1.46117
      H1   -12.81100   -8.32234   -1.07749
       H   -10.85423   -5.51903   -7.54225
       O   -11.28195   -5.72866   -6.68556
      H1   -10.90607   -6.57349   -6.58447
       H   -14.42407   -6.98237    0.93703
       O   -13.84209   -6.30867    0.62733
      H1   -13.47409   -6.60168   -0.19887
       H   -15.04743   -4.96766    0.84554
       O   -15.79785   -4.39666    0.89611
      H1   -15.46011   -3.55884    0.58343
       H    -9.13730    0.22332   -0.40536
       O    -9.44587    1.08136   -0.16138
      H1    -8.74089    1.35971    0.43950

