129
frame 6 | Written by MDAnalysis XYZWriter (release 2.4.3)
       H    -3.91952    2.34334   -2.06196
       O    -3.75916    1.68380   -2.77159
      H1    -4.50955    1.76545   -3.33525
       H    -5.26204   -7.24303   -2.56719
       O    -5.53987   -7.63905   -1.72365
      H1    -4.88700   -7.70367   -1.02502
       H    -4.80785   -2.83405   -7.59028
       O    -4.19454   -2.09775   -7.41211
      H1    -4.27626   -1.42420   -8.15726
       H    -1.98572    4.06098    0.33345
       O    -1.33322    3.82851   -0.36980
      H1    -1.40901    2.86245   -0.28637
       H    -7.01507    2.64048   -4.42631
       O    -6.49677    2.59727   -3.59774
      H1    -6.98143    1.83985   -3.13144
       H    -1.01579   -3.41009   -4.23365
       O    -1.64195   -2.67255   -4.15751
      H1    -1.30482   -2.12409   -3.46396
       H    -4.64260   -0.62830   -6.30383
       O    -4.93342    0.19880   -5.88138
      H1    -4.14485    0.48128   -5.39602
       H    -9.34890   -1.99427    2.31587
       O    -8.48248   -2.00419    2.70807
      H1    -8.24013   -1.07479    2.68617
       H    -2.00413   -5.23044   -5.82638
       O    -2.85566   -4.92330   -6.18602
      H1    -2.51425   -4.31614   -6.80478
       H    -4.55281   -2.96032   -3.85553
       O    -4.01778   -3.75075   -3.71116
      H1    -3.06917   -3.48328   -3.89887
       H    -1.32844   -4.40381    0.95496
       O    -1.25785   -3.94710    0.07702
      H1    -0.62136   -4.54798   -0.33708
       H     1.12054    1.38634   -0.91970
       O     1.81131    1.89637   -0.50080
      H1     2.50928    1.24378   -0.36210
       H    -8.15265    1.75955   -6.58834
       O    -7.93252    2.49034   -5.94475
      H1    -8.71553    3.03814   -5.81009
       H    -7.67358   -4.64562   -4.72361
       O    -6.89487   -4.09144   -4.57117
      H1    -6.60270   -3.89468   -5.48111
       H    -6.82212    1.33015   -8.43624
       O    -7.04614    0.55979   -7.91168
      H1    -6.46977    0.62134   -7.13736
       H    -4.36172    1.35479    1.34444
       O    -3.79956    0.66165    1.74714
      H1    -4.13739   -0.21137    1.31447
       H    -1.08067   -2.93668   -7.18218
       O    -1.73133   -3.01560   -7.90508
      H1    -2.56115   -2.62920   -7.54754
       H    -1.87059   -0.66721   -4.91714
       O    -2.12677    0.26086   -4.97463
      H1    -1.36925    0.71937   -4.59598
       H    -1.80015   -1.24282   -2.01163
       O    -0.86874   -1.13507   -2.16438
      H1    -0.70753   -0.21976   -2.35471
       H    -2.41002   -6.69453   -1.32057
       O    -2.07205   -7.52164   -1.02321
      H1    -1.19595   -7.29191   -0.69342
       H    -4.28841   -1.35094   -0.15709
       O    -4.67407   -1.59872    0.66452
      H1    -5.64026   -1.48835    0.49931
       H    -7.60298   -0.02061   -3.23513
       O    -7.66827    0.56899   -2.46756
      H1    -7.36176    0.12185   -1.73698
       H    -3.70201   -7.06742   -4.07212
       O    -4.52650   -6.60146   -4.12173
      H1    -4.32694   -5.64921   -4.00405
       H    -0.92289    1.90345   -2.47365
       O    -0.06100    1.49413   -2.55986
      H1     0.50208    2.17901   -2.86528
       H    -9.90876   -1.44533   -5.22854
       O    -9.41045   -1.25120   -6.05611
      H1    -9.17630   -2.08681   -6.44180
       H    -6.92564    0.49629    3.76984
       O    -7.11028    0.26079    2.86703
      H1    -7.16355    1.13976    2.40426
       H    -6.04233   -1.10165   -4.42905
       O    -5.94747   -1.68930   -3.67207
      H1    -6.43038   -2.45630   -3.89595
       H    -7.34218   -2.43040   -0.31243
       O    -7.46237   -1.58352    0.09496
      H1    -7.62743   -1.76395    1.00515
       H    -6.17812   -4.73345    2.09363
       O    -7.00311   -4.55619    2.66120
      H1    -7.08502   -3.61285    2.83877
       H    -7.58271    4.75010   -1.62700
       O    -8.27102    4.61382   -2.29297
      H1    -7.86917    4.07124   -3.03573
       H    -2.47613   -4.27087   -1.08939
       O    -2.89470   -4.97001   -1.67378
      H1    -3.36393   -4.54615   -2.48965
       H    -1.99543   -1.66502    2.36693
       O    -1.16026   -1.53035    1.94212
      H1    -1.09243   -2.16704    1.22070
       H    -1.27561    0.35496    0.33276
       O    -1.73403    1.05484   -0.15161
      H1    -2.61077    1.16326    0.18883
       H    -5.45180    3.51547    0.15631
       O    -4.68111    2.94630    0.22765
      H1    -4.01582    3.52664    0.62889
       H    -7.68110   -3.84762   -2.40930
       O    -7.37423   -3.71272   -1.50584
      H1    -7.73790   -4.51501   -1.07137
       H    -4.00816   -2.27973    3.70951
       O    -3.55496   -2.81118    2.94812
      H1    -4.03085   -2.39017    2.21385
       H    -2.53151    3.21272   -3.83891
       O    -2.13025    3.94870   -4.30194
      H1    -1.85533    4.63776   -3.66050
       H     0.59867   -1.04232    0.81304
       O     1.06766   -1.37338    0.03880
      H1     0.36841   -1.33264   -0.65433
       H    -4.37823   -1.23366   -2.32589
       O    -3.70479   -0.92963   -1.66738
      H1    -3.74446   -0.01389   -1.86048
       H    -2.34560    0.70207   -6.87073
       O    -1.98026    0.96934   -7.70524
      H1    -2.51498    1.75402   -8.03580
       H    -9.11988   -0.81921   -0.00200
       O    -9.77533   -0.10472   -0.16852
      H1    -9.26412    0.72789   -0.22313
       H    -4.85517   -5.18312   -7.10812
       O    -5.51470   -4.67426   -7.58318
      H1    -5.59732   -5.14223   -8.41976
       H    -4.04815   -4.81461    0.21750
       O    -4.93882   -4.54208    0.53271
      H1    -5.14293   -3.76416    0.01961

