129
frame 2 | Written by MDAnalysis XYZWriter (release 2.4.3)
       H   -10.82895  -16.13578   -7.17463
       O   -10.01756  -16.50012   -7.62405
      H1   -10.33510  -17.36593   -7.93859
       H   -10.62083  -16.50935   -3.56359
       O   -10.09722  -16.02207   -4.27755
      H1    -9.25291  -16.51690   -4.44192
       H    -6.52887  -10.89678  -11.03648
       O    -6.28162  -10.38336  -11.81595
      H1    -5.75788   -9.68633  -11.40616
       H   -11.34851  -14.50481  -11.69749
       O   -11.22343  -13.79099  -11.04796
      H1   -10.52344  -14.08888  -10.45083
       H    -9.69911   -9.84590  -12.59795
       O   -10.40251  -10.54965  -12.75523
      H1    -9.99062  -11.23145  -13.30175
       H   -14.07623  -16.06378   -8.06292
       O   -14.90443  -16.26546   -7.62228
      H1   -15.60945  -15.95792   -8.21681
       H    -7.23530  -17.34833  -10.62785
       O    -7.28531  -16.52271  -11.14095
      H1    -7.12317  -16.80055  -12.07457
       H    -9.84530   -6.54057   -5.74178
       O    -9.27215   -5.98676   -5.15429
      H1    -9.84054   -5.66143   -4.38520
       H    -6.19789  -15.16583  -11.04811
       O    -5.54312  -14.45467  -11.08652
      H1    -5.80434  -14.02834  -11.88919
       H   -10.05714  -11.38382   -8.71776
       O    -9.33138  -11.43326   -8.00071
      H1    -9.38830  -12.24775   -7.54236
       H    -8.65301  -14.26951   -5.78854
       O    -9.25252  -13.51729   -5.98313
      H1    -9.53890  -13.30425   -5.13637
       H    -8.49412  -17.79394   -5.53965
       O    -7.96987  -17.03873   -5.40017
      H1    -7.71931  -16.71249   -6.27938
       H    -6.14921  -14.99040   -7.19576
       O    -6.90796  -15.51360   -7.54721
      H1    -7.31105  -15.07957   -8.28998
       H   -12.59642   -9.39048   -8.71791
       O   -12.92739   -8.65389   -9.29076
      H1   -13.38790   -8.00873   -8.70895
       H   -11.36038   -7.29081   -7.32252
       O   -10.39464   -7.25830   -7.28634
      H1   -10.12330   -8.20545   -7.27237
       H   -11.57799   -8.18999  -10.63333
       O   -11.03531   -7.56357  -11.13311
      H1   -11.37223   -7.75397  -12.06794
       H    -5.34476  -12.84457  -13.74240
       O    -6.08862  -12.88289  -13.09754
      H1    -6.08615  -12.00909  -12.65227
       H    -7.54526   -9.24212  -12.50263
       O    -8.32883   -8.68618  -12.38371
      H1    -8.14112   -7.83900  -12.78360
       H    -8.06691   -7.44376  -10.75766
       O    -7.31226   -6.87927  -10.48706
      H1    -6.49139   -7.32943  -10.73656
       H   -13.03333   -9.54572   -5.17542
       O   -13.02966   -8.88729   -4.48638
      H1   -13.91207   -8.53249   -4.68310
       H    -9.62326  -14.67962   -3.14585
       O    -9.33887  -13.87687   -2.71408
      H1    -9.75053  -13.87527   -1.85922
       H    -4.24134  -13.78349   -6.59700
       O    -4.54562  -14.65834   -6.32612
      H1    -4.74129  -14.61366   -5.38126
       H    -4.18636  -13.52261  -10.36832
       O    -3.32240  -13.13108  -10.15228
      H1    -3.44225  -12.85324   -9.21934
       H   -11.66671   -7.97322   -3.38045
       O   -10.79264   -7.93007   -2.93532
      H1   -10.10422   -8.11892   -3.58333
       H    -7.07139   -6.96209   -4.28884
       O    -6.39068   -7.47462   -3.89895
      H1    -6.23637   -8.17557   -4.52383
       H    -8.32960  -10.33082   -5.57494
       O    -7.46989  -10.28083   -5.14731
      H1    -7.51119  -10.62655   -4.28326
       H   -11.23054  -10.82060  -10.94895
       O   -11.50110  -11.10718  -10.02901
      H1   -12.21971  -11.73982  -10.03754
       H    -3.03246  -12.16604   -7.12745
       O    -3.85610  -12.47637   -7.51601
      H1    -4.47140  -11.72072   -7.54410
       H    -6.14858  -14.10463   -3.44446
       O    -5.42674  -14.66655   -3.59309
      H1    -4.86963  -14.51828   -2.77513
       H    -9.20571  -10.60571   -2.26955
       O    -9.96688  -10.29552   -1.77385
      H1   -10.31487   -9.48100   -2.22283
       H    -7.78838  -12.64507   -2.59927
       O    -7.56804  -11.73190   -2.52158
      H1    -6.66221  -11.79935   -2.19130
       H    -8.81793  -15.17852  -10.04400
       O    -8.95559  -14.64269   -9.23862
      H1    -9.41535  -15.25862   -8.68979
       H   -12.82053  -11.59969   -3.10472
       O   -12.04668  -11.96423   -3.56674
      H1   -11.25972  -11.70493   -3.02718
       H   -12.51339  -14.95570   -6.00202
       O   -12.17218  -15.83502   -6.03445
      H1   -11.42187  -15.87647   -5.49396
       H   -13.23441  -11.50856   -6.53304
       O   -13.43212  -10.62796   -6.79883
      H1   -14.14773  -10.57316   -7.45694
       H    -6.25752  -10.54599   -6.82295
       O    -5.64050  -10.48813   -7.54466
      H1    -6.07335  -10.95304   -8.26247
       H   -14.47548  -13.88679   -9.32477
       O   -15.26206  -13.35180   -9.45203
      H1   -15.53456  -13.47651  -10.32967
       H    -4.07284  -16.64621   -9.07731
       O    -4.74529  -17.07356   -8.56383
      H1    -5.50448  -16.45963   -8.38105
       H   -10.85643  -10.22574   -5.15588
       O   -10.16716  -10.03927   -5.77535
      H1   -10.13081  -10.72300   -6.45493
       H    -6.62072  -13.05591  -10.09137
       O    -6.66196  -12.22359   -9.62645
      H1    -7.37383  -12.35227   -8.98570
       H   -12.24829  -14.50674   -9.47545
       O   -12.92144  -14.89418   -8.87870
      H1   -12.85637  -14.49115   -8.00551
       H   -11.88153  -13.79872   -2.87222
       O   -12.39971  -14.39154   -2.26851
      H1   -12.81741  -15.16023   -2.76094
       H   -14.06874  -13.20113   -5.23187
       O   -13.19336  -13.31275   -5.61515
      H1   -12.62910  -12.75636   -4.95272

