129
frame 6 | Written by MDAnalysis XYZWriter (release 2.4.3)
       H     9.97183    5.42114  -11.80642
       O    10.48682    5.30238  -11.03784
      H1     9.84066    4.92529  -10.38772
       H    14.89778   -0.83889  -16.12570
       O    14.98431   -0.07507  -15.60127
      H1    15.96212    0.13810  -15.38697
       H    13.62897    1.59217  -17.71697
       O    14.04328    2.05890  -16.97044
      H1    14.32479    1.34885  -16.33130
       H    12.68297    5.88243   -7.83283
       O    12.02622    5.40954   -7.20623
      H1    12.50077    5.54629   -6.35088
       H    13.19352   -2.08606  -10.56217
       O    12.81141   -1.27987  -10.25429
      H1    11.96533   -1.22675  -10.76062
       H    12.22622    0.18734   -7.66917
       O    12.19842   -0.73966   -7.66798
      H1    12.27184   -0.92018   -8.62150
       H    14.46958    3.03447   -6.12564
       O    14.59241    3.12532   -5.14385
      H1    14.05222    3.92620   -4.98439
       H    12.97862    3.34724  -12.96494
       O    12.78906    3.40708  -12.06403
      H1    11.86530    3.64742  -12.00272
       H    18.00689   -0.36159  -14.51006
       O    17.59780    0.45780  -14.86146
      H1    17.76512    0.46875  -15.83621
       H     9.46890    2.08597   -7.09091
       O     8.64036    1.61543   -7.17106
      H1     8.24768    1.86133   -8.09151
       H    10.28607   -3.04322  -10.32528
       O    10.61595   -3.77665  -10.91566
      H1    10.96779   -3.32084  -11.75578
       H    14.71025   -2.55960  -14.71843
       O    14.42782   -2.92816  -15.56369
      H1    14.27608   -3.85295  -15.45329
       H    11.22319   -1.16476  -13.28496
       O    11.40080   -2.05027  -12.95642
      H1    12.31304   -2.19024  -12.92046
       H    18.22003   -1.20609  -12.44260
       O    18.63371   -1.60948  -13.20920
      H1    19.55845   -1.63385  -13.02452
       H    15.17167   -3.62108  -11.17221
       O    14.47943   -3.41383  -10.49346
      H1    14.34441   -4.19261   -9.95639
       H    17.69092   -3.19081  -11.99438
       O    17.95100   -3.97555  -11.50380
      H1    17.51969   -3.93087  -10.65093
       H    19.51409    2.96734   -8.23073
       O    18.69334    3.29313   -8.66016
      H1    18.38693    2.54202   -9.14619
       H     8.39635    1.73686  -11.50427
       O     8.88138    2.05385  -12.23614
      H1     8.57035    2.94337  -12.44969
       H    16.78355   -2.19165   -8.63015
       O    16.20052   -1.46377   -8.92211
      H1    15.56795   -1.93118   -9.42116
       H    13.55179    1.28786   -5.11449
       O    12.76054    0.76302   -4.83391
      H1    12.61843    0.98839   -3.94438
       H    16.48608    3.34734  -14.16821
       O    16.93718    2.74187  -13.63089
      H1    17.21409    1.96643  -14.15891
       H    15.61507   -0.00077  -11.63854
       O    14.76351    0.35590  -11.99439
      H1    14.64140    1.23819  -11.73414
       H    13.30375   -6.03030   -8.88337
       O    13.94109   -5.36872   -8.78335
      H1    13.36921   -4.63269   -8.35143
       H     8.95462   -1.21443  -14.62038
       O     8.42383   -0.41298  -14.42647
      H1     8.36170   -0.50865  -13.45370
       H    16.58354    2.43305  -11.81095
       O    16.58744    2.37605  -10.86684
      H1    16.10007    3.10567  -10.48678
       H    12.76172    2.83469  -15.76823
       O    12.37151    3.23946  -14.92364
      H1    11.47517    3.05621  -15.17368
       H     9.77543   -1.21936   -9.06108
       O     9.93776   -1.25214  -10.01655
      H1     9.06651   -0.97768  -10.35942
       H     8.32284   -0.22847   -7.64555
       O     8.28863   -1.19760   -7.77854
      H1     7.96702   -1.55086   -6.92102
       H    12.39494   -4.03147   -6.45892
       O    12.24659   -3.62302   -7.36127
      H1    12.35835   -2.66673   -7.10646
       H    11.75712    1.90168   -5.79980
       O    11.37010    2.37188   -6.58301
      H1    11.81649    3.22739   -6.75200
       H    10.39441   -2.63196  -14.35154
       O    10.15564   -2.37048  -15.28010
      H1     9.50440   -2.95151  -15.62342
       H    16.51533    0.61712   -5.44283
       O    16.86288    0.92129   -4.62459
      H1    16.23161    0.69407   -3.93699
       H    14.26149    2.11664   -8.41226
       O    14.93874    2.35350   -7.81931
      H1    15.18834    1.43271   -7.50569
       H    15.99108    4.14276   -6.84158
       O    16.81914    4.64810   -7.04760
      H1    17.29687    4.24556   -7.77036
       H    15.31532   -0.78993   -7.64165
       O    15.16475   -0.39206   -6.77112
      H1    14.21068   -0.57817   -6.59175
       H    17.23867    0.57413  -11.04419
       O    17.22573   -0.30606  -11.37089
      H1    16.70473   -0.75637  -10.67386
       H    16.21550   -2.40881  -13.71339
       O    15.53534   -2.33895  -12.99765
      H1    15.39132   -1.34133  -12.97864
       H    14.07624    5.59736  -13.57552
       O    14.61567    5.02126  -13.07516
      H1    14.07724    4.45869  -12.50619
       H    11.94396    1.33086  -13.57263
       O    11.22936    0.69044  -13.43111
      H1    10.56776    1.19243  -12.96288
       H    12.83954    2.17150  -10.50504
       O    13.23454    1.48607   -9.93372
      H1    13.47955    0.75640  -10.48269
       H    14.51307    7.36636   -8.57487
       O    13.96373    6.55410   -8.77354
      H1    14.51140    5.95131   -9.26025
       H    17.00774    5.37533  -10.37840
       O    16.03962    5.19916  -10.34769
      H1    15.65549    5.37516  -11.25122
       H    18.45063    2.31479  -12.38560
       O    19.32500    1.96738  -12.09881
      H1    19.61671    1.37784  -12.73146

