129
frame 4 | Written by MDAnalysis XYZWriter (release 2.4.3)
       H    -5.22590   -8.77580    6.18553
       O    -5.54600   -7.87330    6.19243
      H1    -6.18762   -7.82862    6.89925
       H    -2.36197   -8.51158    0.41163
       O    -2.65692   -9.21369    0.99510
      H1    -2.90840   -8.74030    1.80919
       H    -5.34334   -8.00318   -2.60298
       O    -4.73419   -8.21030   -1.87047
      H1    -4.57991   -7.39370   -1.36128
       H    -7.14297   -8.75838    2.23561
       O    -7.78680   -8.18438    1.80988
      H1    -7.76962   -8.48178    0.88091
       H    -9.58013   -2.73787    2.31516
       O    -8.72360   -2.33574    2.42783
      H1    -8.78816   -1.74862    3.19359
       H    -3.99072   -2.19491   -2.73581
       O    -3.25742   -2.66139   -2.34658
      H1    -2.53397   -2.60005   -3.01941
       H    -1.82345   -4.87081    0.48664
       O    -2.14173   -4.94761   -0.42014
      H1    -1.42642   -4.79410   -1.00990
       H    -9.05430   -8.46044    3.06368
       O    -9.53859   -8.71221    3.87451
      H1   -10.06472   -9.51237    3.58288
       H    -9.93320   -5.50822    3.04781
       O    -9.79396   -4.99009    3.87677
      H1    -8.83472   -5.06995    4.09409
       H    -3.91604  -10.82314    6.49768
       O    -3.68827  -10.02562    5.97266
      H1    -3.30560  -10.31588    5.16370
       H    -5.31612   -5.96359    5.76615
       O    -4.86105   -5.09016    5.84258
      H1    -5.60993   -4.44931    5.67562
       H    -7.83036   -6.81356   -0.47833
       O    -8.15214   -5.87700   -0.30281
      H1    -7.42530   -5.52667    0.27016
       H    -5.50840   -0.37095    5.85715
       O    -5.19076   -1.27531    5.65089
      H1    -5.81027   -1.72716    5.07053
       H    -4.93466  -11.61969    1.11264
       O    -4.45876  -11.79273    1.96698
      H1    -4.91889  -12.48907    2.44602
       H    -1.72508   -6.66979   -0.44698
       O    -1.28512   -7.54185   -0.64218
      H1    -0.53836   -7.60656   -0.03469
       H    -7.42686  -10.15932    6.13518
       O    -8.29734   -9.68928    6.24850
      H1    -8.56534   -9.51534    5.34250
       H    -4.58672   -0.85266   -0.03493
       O    -5.15075   -0.93978    0.82313
      H1    -6.04021   -1.18587    0.51815
       H    -7.08501   -6.27941   -4.20537
       O    -6.32809   -6.85595   -4.34962
      H1    -6.74336   -7.72501   -4.63310
       H    -8.02359   -8.53581   -1.69829
       O    -7.52194   -8.66169   -0.85953
      H1    -6.56691   -8.67041   -1.09937
       H   -10.17734   -6.31388    5.42495
       O   -10.11417   -7.06266    6.02684
      H1    -9.88715   -7.87505    5.47551
       H    -5.03713   -5.12608   -3.40365
       O    -5.20170   -4.53175   -2.67523
      H1    -4.36812   -4.08972   -2.53704
       H    -1.74338  -10.11036    3.57594
       O    -2.37417  -10.84848    3.70833
      H1    -2.87839  -10.93265    2.86788
       H   -11.17444   -4.12378    2.28661
       O   -11.31369   -3.28187    1.85185
      H1   -12.00759   -2.85018    2.32797
       H   -11.02004   -6.19615    0.98315
       O   -10.23299   -5.92713    1.50075
      H1    -9.43092   -6.14453    0.93558
       H    -5.53212   -1.16144   -3.71798
       O    -5.86616   -1.55875   -2.90121
      H1    -6.45614   -2.30622   -3.17228
       H    -9.26662   -9.03992   -3.47804
       O    -9.19303   -8.32704   -2.86979
      H1    -9.35043   -7.50270   -3.30865
       H    -7.91093   -2.11064   -0.49555
       O    -7.78628   -1.41463    0.15161
      H1    -8.13668   -1.87166    0.91500
       H    -5.91222   -3.34913    3.22576
       O    -6.53213   -3.00974    3.92292
      H1    -7.40312   -2.91515    3.55432
       H    -4.81875  -11.34436   -1.14507
       O    -5.64239  -11.69891   -0.68776
      H1    -5.39132  -12.62870   -0.58372
       H    -2.93962   -4.82061    5.59733
       O    -1.94492   -4.63087    5.79645
      H1    -1.81284   -5.03660    6.69586
       H    -3.64767   -7.51337   -3.29281
       O    -3.04535   -7.39649   -4.04425
      H1    -3.58724   -6.89534   -4.71948
       H    -3.40107   -7.71190    4.14611
       O    -3.74852   -7.84802    3.26809
      H1    -4.57053   -8.36127    3.33958
       H    -3.87297   -5.58336   -0.52498
       O    -4.75541   -5.98586   -0.27575
      H1    -5.18652   -5.40095   -0.95863
       H    -7.90633  -11.37571   -0.22639
       O    -8.20347  -12.05503    0.38237
      H1    -9.14842  -12.07226    0.07286
       H    -2.16663   -2.26519    0.89499
       O    -1.57760   -2.24420    0.09405
      H1    -2.13087   -2.78845   -0.45417
       H    -9.85226   -3.57641   -1.74211
       O    -9.02543   -3.35442   -1.43020
      H1    -8.68003   -4.22203   -1.22092
       H    -5.38403  -10.44404    2.79084
       O    -5.82263   -9.70109    3.27674
      H1    -6.03129  -10.06298    4.17656
       H    -3.14460   -2.07036    2.87987
       O    -3.39506   -2.44250    1.99768
      H1    -4.03972   -1.83599    1.65794
       H    -2.90235   -4.27414    2.38536
       O    -2.58600   -5.19250    2.30164
      H1    -3.27153   -5.68323    2.69615
       H   -10.08127   -8.84641   -1.41055
       O   -10.61643   -9.15918   -0.67169
      H1   -11.48315   -9.30706   -1.07415
       H    -3.88903   -9.71926   -1.98280
       O    -3.48394  -10.63349   -2.04353
      H1    -2.64790  -10.65267   -1.58992
       H    -1.84396  -10.57438    0.05342
       O    -1.37649  -11.32028   -0.45944
      H1    -0.63865  -10.86273   -0.82756
       H    -6.57496   -6.61559    2.43507
       O    -6.25372   -5.79496    2.02544
      H1    -5.49921   -6.00692    1.49070

