129
frame 1 | Written by MDAnalysis XYZWriter (release 2.4.3)
       H   -10.96462  -15.81216   -6.82815
       O   -10.37521  -15.99406   -7.58092
      H1   -10.26660  -16.94058   -7.71904
       H    -9.90620  -19.42854   -7.17516
       O    -9.90105  -19.77777   -6.28034
      H1   -10.65091  -19.34028   -5.87413
       H   -10.30454  -16.75407   -3.08559
       O    -9.79082  -16.09313   -3.54021
      H1    -9.23254  -16.58027   -4.13379
       H    -8.81526  -18.38227    1.32012
       O    -9.28236  -18.94049    0.69265
      H1   -10.20713  -18.81744    1.01832
       H   -12.96864  -18.64615   -4.94520
       O   -12.11867  -19.02392   -4.68613
      H1   -12.29052  -19.99438   -4.66113
       H   -10.70132  -14.88515  -11.99140
       O   -10.78020  -14.48593  -11.13108
      H1    -9.88088  -14.21587  -10.97041
       H    -4.12108  -17.31127   -4.18453
       O    -3.30499  -16.84121   -4.14338
      H1    -3.01561  -16.66495   -5.06612
       H   -13.29253  -16.92468   -8.90438
       O   -13.90471  -16.50519   -8.29493
      H1   -13.75289  -15.54631   -8.41680
       H    -7.09581  -18.23580  -10.75747
       O    -6.65460  -17.58502  -11.37927
      H1    -7.25325  -17.57066  -12.13533
       H    -6.21285  -15.90373  -11.43812
       O    -6.17616  -14.92985  -11.30916
      H1    -6.27096  -14.52907  -12.21978
       H   -10.96144  -11.92162   -8.15726
       O   -10.24313  -11.90621   -7.43069
      H1    -9.99340  -12.82459   -7.33594
       H   -11.83040  -16.07072  -13.19200
       O   -10.90343  -15.81045  -13.43364
      H1   -10.95530  -15.51859  -14.33847
       H   -16.92166  -15.28044   -7.59692
       O   -16.83856  -15.51993   -8.49208
      H1   -16.38495  -14.78245   -8.86560
       H    -9.31165  -14.95819   -6.62816
       O    -9.19620  -14.00844   -6.30780
      H1    -8.31890  -13.76317   -6.50500
       H    -5.89438  -20.06813   -1.69019
       O    -6.17342  -19.55224   -0.91765
      H1    -6.61519  -18.75566   -1.34915
       H    -8.46994  -18.48667   -5.68827
       O    -8.21737  -17.55885   -5.45394
      H1    -8.03729  -17.22027   -6.32795
       H    -6.05429  -15.39275   -6.59275
       O    -6.75469  -15.88996   -7.07380
      H1    -7.06842  -15.38719   -7.83971
       H    -9.19616  -18.82437   -1.53037
       O    -9.42375  -19.03812   -2.45698
      H1   -10.39347  -18.91273   -2.44273
       H   -16.87362  -18.51082   -7.69823
       O   -17.60772  -18.20411   -8.25271
      H1   -17.21716  -17.36412   -8.58698
       H   -10.53457  -18.22449   -9.53445
       O    -9.96686  -18.56146   -8.80932
      H1    -9.06896  -18.50228   -9.16541
       H    -9.29544  -14.78292   -2.24378
       O    -8.83951  -14.04605   -1.86838
      H1    -9.39548  -13.62825   -1.24839
       H    -4.51543  -13.98107   -6.20418
       O    -4.72407  -14.79919   -5.74320
      H1    -5.37810  -14.65449   -5.05748
       H    -5.67311  -18.93306   -3.67284
       O    -5.61678  -18.38940   -4.41878
      H1    -6.47822  -17.93973   -4.58663
       H    -3.05134  -17.12757   -7.39390
       O    -2.35374  -17.25182   -6.68267
      H1    -1.56254  -16.70888   -6.94304
       H   -11.30295  -11.27034  -10.46654
       O   -11.83316  -11.41370   -9.63993
      H1   -12.24643  -12.29045   -9.88786
       H    -6.77886  -14.23467   -3.14589
       O    -6.34772  -14.95531   -3.62145
      H1    -5.50246  -15.10559   -3.09965
       H   -14.95976  -19.21981   -8.70832
       O   -14.87902  -19.12069   -7.73289
      H1   -14.53848  -18.27589   -7.52179
       H    -7.25504  -16.52332   -0.73520
       O    -7.04521  -15.87723   -0.03315
      H1    -7.47191  -15.05110   -0.22693
       H   -12.57747  -18.66501  -10.33201
       O   -12.31174  -17.76405  -10.17672
      H1   -12.80024  -17.44259  -10.97064
       H    -7.60878  -15.02584  -10.01821
       O    -8.14391  -14.94648   -9.25674
      H1    -8.93575  -15.48783   -9.42491
       H    -9.98495  -17.30241  -13.09181
       O    -9.33126  -18.01019  -13.24893
      H1    -8.54648  -17.63650  -13.68002
       H   -12.26082  -14.88123   -5.49141
       O   -11.97040  -15.80265   -5.21205
      H1   -11.08223  -15.72888   -4.86806
       H   -15.33380  -18.43486   -4.90587
       O   -14.60809  -17.92771   -5.13683
      H1   -14.94946  -17.02415   -5.18989
       H    -8.07064  -17.58395   -2.57618
       O    -7.22973  -17.21553   -2.28031
      H1    -7.01379  -16.49068   -2.94163
       H   -13.98880  -17.31233  -13.12589
       O   -13.55538  -16.77815  -12.40141
      H1   -13.99418  -15.94177  -12.54243
       H   -12.45905  -17.54058   -1.39385
       O   -11.98334  -17.35856   -2.24655
      H1   -12.38049  -17.87906   -2.95801
       H    -4.63004  -16.71889   -9.32639
       O    -4.75246  -17.22458   -8.47325
      H1    -5.38776  -16.68360   -7.96326
       H   -14.33553  -14.72676   -2.88484
       O   -15.12984  -15.18071   -3.18205
      H1   -15.18254  -15.94069   -2.54318
       H    -7.95744  -12.53134   -9.44901
       O    -7.89404  -11.54953   -9.47909
      H1    -8.58685  -11.21854   -8.85680
       H   -12.11108  -14.49722   -9.33589
       O   -12.83352  -13.99767   -8.95867
      H1   -12.70756  -13.85267   -8.03253
       H   -12.27860  -13.91774   -2.72262
       O   -12.59414  -14.67709   -2.25506
      H1   -12.32351  -15.47956   -2.70225
       H    -5.04703  -18.95340   -8.49483
       O    -5.24568  -19.92969   -8.28982
      H1    -4.66538  -20.09911   -7.49709
       H   -13.89300  -13.38030   -5.98914
       O   -12.89909  -13.47148   -6.22678
      H1   -12.47246  -12.81150   -5.60754

