129
frame 0 | Written by MDAnalysis XYZWriter (release 2.4.3)
       H   -17.63458    0.61431   10.19123
       O   -18.37158    0.87763   10.77855
      H1   -18.28089    1.76758   11.08548
       H   -19.29496    4.31055    9.59294
       O   -19.35954    4.74215   10.44178
      H1   -18.88895    4.08561   10.95622
       H   -16.10579    6.04710    7.82897
       O   -15.38170    5.36409    7.95221
      H1   -14.84145    5.47625    8.77157
       H   -12.53385   -0.39926    5.52404
       O   -13.43936   -0.40067    5.86317
      H1   -13.89144    0.35281    5.45272
       H   -16.87246    3.42592    7.56247
       O   -17.18463    2.62296    7.17078
      H1   -17.96190    2.35766    7.61878
       H   -18.80871    2.96951    3.55083
       O   -18.18971    3.27135    2.87230
      H1   -18.26946    2.79705    2.03678
       H   -19.76133   -1.54819   -0.61515
       O   -19.01872   -1.94758   -0.09093
      H1   -19.15000   -1.62010    0.83153
       H   -15.81512    2.14428    4.65018
       O   -16.12531    1.39361    5.10707
      H1   -16.55605    1.71294    5.92405
       H   -20.20588    7.14016    3.54040
       O   -19.59528    7.49163    4.22927
      H1   -18.74139    7.49612    3.67047
       H   -11.98975    0.47552    2.41673
       O   -11.44300    1.30165    2.43411
      H1   -10.85653    1.05868    1.69604
       H   -13.66976   -0.99432    3.64388
       O   -13.41377   -0.97456    2.71581
      H1   -14.21349   -0.77895    2.21434
       H   -14.32098    0.98307   -0.37444
       O   -14.96227    1.34550    0.35652
      H1   -15.52426    0.58632    0.63170
       H   -16.48116    1.08625    8.11515
       O   -16.30104    0.36890    8.72488
      H1   -16.25678   -0.47105    8.24780
       H   -19.31114   -4.38412   -1.56263
       O   -19.87661   -4.55139   -0.79701
      H1   -20.03102   -3.66861   -0.46125
       H   -14.31413    0.63710    9.58128
       O   -13.66599    1.28704    9.76574
      H1   -12.84871    0.81879    9.55589
       H   -14.86040   -4.02135    4.20828
       O   -15.46232   -3.52047    3.62623
      H1   -15.19041   -3.73337    2.71168
       H   -12.23704    7.61502    4.11316
       O   -12.64553    6.68733    3.94157
      H1   -13.14190    6.58061    4.76639
       H   -18.00502    6.83423    1.78631
       O   -17.57091    7.56176    2.19651
      H1   -16.65334    7.29610    2.08619
       H   -12.98116    4.11427    1.04808
       O   -13.85388    3.75924    0.87304
      H1   -13.79399    2.81200    0.89522
       H   -16.21966   -2.09950    6.85072
       O   -16.06027   -2.52336    7.74778
      H1   -15.05280   -2.55327    7.85253
       H   -17.68829    5.24640   -0.45751
       O   -17.12360    5.33158   -1.24790
      H1   -17.68076    5.88255   -1.81831
       H   -17.42165   10.79320    1.69620
       O   -18.00571   10.13398    1.30017
      H1   -17.89162    9.28126    1.73224
       H   -18.93856    3.43154   -3.97493
       O   -18.95050    3.02651   -3.07089
      H1   -18.01969    2.66466   -2.96149
       H   -19.81785   -2.68949    6.96455
       O   -19.45437   -1.84125    6.70025
      H1   -18.83570   -2.03792    6.03546
       H   -11.63082    4.97902    2.65424
       O   -11.46612    4.22371    2.06321
      H1   -11.78450    3.44049    2.56522
       H   -17.76025   -4.27705    4.20719
       O   -18.07859   -3.97248    3.33748
      H1   -17.15950   -3.88063    2.98037
       H   -16.47007   -0.48313    5.06612
       O   -16.71599   -1.40669    5.13026
      H1   -16.01987   -1.83669    4.62829
       H   -16.35111    3.64554    3.25648
       O   -15.39016    3.62168    3.54866
      H1   -14.89752    3.71295    2.72938
       H   -16.98370   -1.09069    2.19796
       O   -16.13591   -0.96394    1.76515
      H1   -16.15085   -1.30387    0.84117
       H   -16.78508    7.96132    8.10337
       O   -17.10990    7.32195    7.41889
      H1   -18.03832    7.55929    7.37189
       H   -13.18912    1.83733    7.26112
       O   -12.55406    2.38264    6.81482
      H1   -13.15676    3.05075    6.42476
       H   -15.68566   -2.11785   -1.48932
       O   -16.11116   -1.94805   -0.63869
      H1   -17.05864   -2.03480   -0.78650
       H   -13.80135    6.93370    2.27753
       O   -14.66027    6.94546    1.88112
      H1   -14.55207    6.58585    1.03236
       H   -14.69220    4.56276    6.48987
       O   -14.10322    4.38917    5.71588
      H1   -14.70049    4.21367    4.96816
       H   -14.40447    2.56636   -2.18568
       O   -14.96584    2.95001   -2.84752
      H1   -14.75267    2.50575   -3.67067
       H   -17.52321    3.44069   -0.41860
       O   -17.56759    2.66037    0.15421
      H1   -16.69569    2.26701   -0.01719
       H   -16.46118    0.85766   -1.88176
       O   -16.94153    1.27639   -2.61707
      H1   -16.38578    1.99394   -2.87309
       H   -19.70961    5.43192    0.87942
       O   -18.76029    5.35934    1.05411
      H1   -18.75721    4.67004    1.74150
       H   -13.50823   -2.05364    6.60178
       O   -13.55443   -2.82599    7.21856
      H1   -13.20209   -2.53164    8.06529
       H   -16.90492    9.49710   -0.02371
       O   -16.38757    9.13464   -0.75301
      H1   -16.20811    9.89364   -1.39371
       H   -14.38675    4.85722   -0.14376
       O   -14.61676    5.66559   -0.63407
      H1   -15.44733    5.46936   -1.09263
       H   -14.61637    6.86672    6.68200
       O   -14.17760    7.64247    6.33466
      H1   -14.90931    8.21456    6.23586
       H   -15.04743   -4.96766    0.84554
       O   -15.79785   -4.39666    0.89611
      H1   -15.46011   -3.55884    0.58343

