129
frame 1 | Written by MDAnalysis XYZWriter (release 2.4.3)
       H     6.82425  -18.61773   12.30694
       O     7.22875  -19.02448   11.48962
      H1     7.31633  -19.97961   11.58845
       H     6.85881  -18.53791   17.97091
       O     7.62539  -18.28365   17.42410
      H1     7.38001  -17.52420   16.82415
       H    -5.96793  -16.92472   11.77643
       O    -6.07964  -16.36979   10.93530
      H1    -6.57507  -16.83829   10.20785
       H    -0.66206  -17.82393   18.95503
       O     0.31333  -17.56523   18.98866
      H1     0.80608  -18.23446   18.49507
       H    -6.01060  -18.68811   13.63555
       O    -5.38589  -19.45840   13.54576
      H1    -4.46413  -19.25440   13.53171
       H    -5.49731  -16.06603   14.60038
       O    -4.98244  -16.48237   13.88801
      H1    -4.80624  -15.69891   13.25681
       H     0.32616  -12.32039   11.33431
       O     0.08798  -12.93277   10.60934
      H1    -0.42893  -12.32965   10.14093
       H     5.33888  -13.20813   11.58627
       O     5.66096  -14.14073   11.71805
      H1     5.96021  -14.47051   10.83918
       H    -1.94658  -16.13676   13.76794
       O    -2.12986  -16.70173   14.52507
      H1    -2.88597  -17.19488   14.16459
       H    -1.66782  -15.78394   17.29562
       O    -2.56827  -16.23846   17.27732
      H1    -2.68708  -16.51440   16.39331
       H    -0.43568  -12.96485   18.22294
       O    -0.84105  -12.10746   18.21558
      H1    -0.86158  -11.84813   17.33204
       H     6.89374  -17.50385    8.72962
       O     7.56879  -17.48678    9.46187
      H1     7.30139  -18.01165   10.23619
       H    -2.61343  -11.71212   11.86983
       O    -2.54050  -12.34195   12.64255
      H1    -3.27913  -12.94818   12.69254
       H    -4.75797  -15.40171   10.33761
       O    -4.01757  -14.78352   10.05012
      H1    -3.14263  -15.19873   10.09115
       H     4.21728  -17.42705    7.69344
       O     4.37960  -17.36341    8.62214
      H1     3.65071  -16.88780    9.03577
       H    -2.68874  -17.91161   19.88963
       O    -2.47247  -18.27477   18.98229
      H1    -2.70247  -17.50928   18.41056
       H     0.06470  -19.29710    8.50836
       O    -0.25392  -18.37256    8.71081
      H1     0.56122  -18.07642    9.10923
       H    -4.32724  -14.33586   11.59322
       O    -4.60845  -14.01393   12.49381
      H1    -5.41345  -13.49793   12.36644
       H    -7.80092  -18.09011   17.67158
       O    -7.66195  -19.05241   17.74196
      H1    -6.77756  -19.15817   17.37805
       H     7.02125  -16.73711   14.91720
       O     7.26123  -16.15942   15.67188
      H1     6.52791  -15.62354   15.97854
       H    -6.84899  -18.67863    8.42143
       O    -6.29377  -17.96216    8.83116
      H1    -5.41731  -18.24149    9.01250
       H    -2.53657  -17.58507    8.57251
       O    -3.45992  -17.39537    8.39381
      H1    -3.42027  -17.11914    7.46224
       H     0.49545  -11.75341   13.60847
       O     1.36901  -11.73022   13.12285
      H1     1.58286  -12.69860   13.21830
       H    -0.06407  -15.57573   18.70260
       O    -0.26841  -14.93164   17.98136
      H1     0.52169  -14.79250   17.47497
       H     3.05293  -19.03057   12.12913
       O     3.47093  -18.33379   11.61555
      H1     3.99381  -18.88222   10.92530
       H     5.17906  -17.17244   18.77769
       O     4.86555  -18.05975   18.40028
      H1     4.64156  -18.63144   19.13319
       H    -0.95876  -13.88536   12.95469
       O    -0.68617  -14.83287   12.98557
      H1    -0.78325  -15.26988   12.12286
       H     8.58946  -19.09488   14.99538
       O     9.36964  -18.53854   14.87794
      H1     9.50587  -18.18958   15.78493
       H    -1.55183  -18.94094   11.75701
       O    -0.73988  -18.80666   11.28417
      H1    -0.93992  -18.81300   10.37512
       H     0.05467  -17.70812    7.03215
       O     0.50348  -17.68370    6.15113
      H1     0.31712  -16.78643    5.80811
       H     2.55404  -14.93458   12.85866
       O     1.99208  -14.36724   13.35131
      H1     1.10414  -14.68196   13.27746
       H     2.80558  -17.65637   15.79325
       O     2.58393  -17.49628   14.85964
      H1     3.12459  -16.77877   14.51716
       H     2.22707  -15.55324   10.00443
       O     2.00527  -16.49804    9.88923
      H1     2.32816  -17.00460   10.59580
       H     4.92068  -14.23873   15.25291
       O     4.78056  -14.49858   16.16927
      H1     3.83668  -14.52253   16.17077
       H     7.05891  -13.41854   17.83892
       O     6.57388  -14.25505   17.98310
      H1     5.70234  -14.06619   17.51562
       H     6.01069  -18.27853   14.19502
       O     6.37750  -17.53847   13.63301
      H1     5.66954  -16.87442   13.44801
       H    -2.16942  -18.94363   14.09199
       O    -2.58158  -19.26922   13.31097
      H1    -2.33848  -20.21108   13.39373
       H     3.25465  -18.52866   17.77608
       O     2.37998  -18.72759   17.46410
      H1     2.38460  -19.64466   17.17846
       H     0.83758  -20.02897   14.08599
       O     0.48011  -19.95480   14.96963
      H1     0.51374  -18.98739   15.14726
       H     1.69239  -13.65196   10.16418
       O     2.62312  -13.92333   10.22663
      H1     3.11465  -13.56282    9.42970
       H     4.70226  -15.34434   12.57381
       O     4.19105  -16.01912   13.05021
      H1     4.13090  -16.89259   12.55702
       H    -0.61656  -16.44027   10.14295
       O    -1.15575  -15.68171   10.37080
      H1    -0.73908  -14.79624   10.30565
       H     1.58348  -14.88770   15.96483
       O     1.86084  -14.22514   16.60159
      H1     1.98280  -13.38107   16.06808

