129
frame 10 | Written by MDAnalysis XYZWriter (release 2.4.3)
       H    -2.86918   10.51408    9.33595
       O    -2.30402   10.73327    8.59034
      H1    -2.49273   11.69523    8.52760
       H    -3.32067    4.58016   12.60245
       O    -3.42130    3.64775   12.25649
      H1    -4.16241    3.47259   12.90937
       H     2.07509    3.97919    4.95968
       O     1.67340    4.54495    5.63144
      H1     2.36882    5.24639    5.80206
       H    -8.56511    8.46242    6.52013
       O    -8.02443    7.72714    6.99269
      H1    -8.61073    7.23977    7.59275
       H    -1.16793    6.10876    5.36678
       O    -0.48029    6.51242    5.86750
      H1     0.27048    5.90458    5.73582
       H    -1.60057    3.07080    9.69547
       O    -1.88175    3.15424    8.74403
      H1    -2.81788    3.04323    8.78452
       H    -4.77747    6.56343    1.38981
       O    -4.19063    5.81662    1.68431
      H1    -3.64952    6.33534    2.29829
       H    -2.37366    2.59756    4.75124
       O    -3.21291    3.03036    5.01376
      H1    -3.75978    2.68124    4.30777
       H     0.64981    9.05557    6.27567
       O     1.59780    8.96478    6.21510
      H1     1.90731    9.87142    6.38297
       H    -1.88066    6.38586   10.01490
       O    -1.79820    6.45085   10.99443
      H1    -2.25562    7.22662   11.25178
       H    -5.91124    6.17810    9.64921
       O    -5.81865    7.08413    9.94318
      H1    -6.07410    7.73952    9.21412
       H    -5.31787    9.12857    2.65507
       O    -4.63056    8.81921    3.36751
      H1    -5.21965    8.72317    4.12938
       H    -6.61012   11.78036   13.10822
       O    -7.23035   11.48858   12.39562
      H1    -6.63422   11.53799   11.59070
       H     0.19022    9.35040   11.00196
       O    -0.31385   10.18095   11.13556
      H1    -0.69950   10.45413   10.31428
       H    -1.80308    9.38860   12.14282
       O    -2.71731    9.17921   12.52174
      H1    -2.69844    9.55374   13.39240
       H    -8.61212    3.58147   10.01863
       O    -8.52933    3.62797    9.03684
      H1    -7.61041    3.88739    8.81847
       H    -2.68550    4.75404    4.67172
       O    -2.53401    5.68186    4.37749
      H1    -3.18134    6.14094    5.01337
       H    -4.75883    8.44392   10.17949
       O    -4.25751    9.29253   10.18074
      H1    -4.08853    9.42876   11.13510
       H    -1.85699    4.80673    8.28125
       O    -1.93253    5.78875    8.24433
      H1    -1.37798    6.11491    7.48894
       H    -4.63528    7.60026    6.02296
       O    -5.47307    7.36009    5.60698
      H1    -6.09480    7.48298    6.35274
       H    -5.52108   12.06524    3.58679
       O    -6.15539   12.35134    2.87124
      H1    -6.98082   11.93113    3.14092
       H    -2.29284   13.63562    6.68043
       O    -1.94132   13.53282    7.57135
      H1    -0.95567   13.47810    7.53149
       H    -5.42398    3.72462    8.82034
       O    -5.98423    4.54191    8.69333
      H1    -5.90892    4.69007    7.74625
       H    -1.36123    8.15061    2.76939
       O    -2.11894    8.28185    2.14722
      H1    -2.81469    8.72380    2.63263
       H    -6.65064    6.75342   11.76504
       O    -7.32142    6.52330   12.41956
      H1    -6.83316    6.71926   13.23875
       H    -1.82339   10.98510    4.16917
       O    -1.69220   11.35225    3.26773
      H1    -1.95256   10.69651    2.57746
       H     1.94578    7.75435   10.40641
       O     1.87339    8.11624   11.33068
      H1     1.60600    7.33891   11.81055
       H    -5.14760    9.05474    7.44041
       O    -5.96005    9.06091    7.91832
      H1    -6.66292    8.66983    7.38843
       H    -0.19714    5.99510   12.12659
       O     0.55322    6.13208   12.74860
      H1     0.15148    6.51187   13.59453
       H    -0.35147    2.23305    7.84546
       O     0.47418    2.25271    7.32011
      H1     0.62185    3.17273    7.10028
       H    -2.40483   10.75491    6.87741
       O    -2.46379   10.63233    5.96240
      H1    -3.15614   11.28601    5.66883
       H     3.30182    7.38079    8.49937
       O     2.39865    7.13091    8.25603
      H1     2.13068    7.72951    7.55509
       H     0.79874    9.94231    4.18612
       O     0.71104   10.91509    4.16218
      H1    -0.21059   11.05860    3.87786
       H     1.14855    8.07570    3.63205
       O     0.20322    8.15225    3.68208
      H1    -0.03258    7.52767    4.39462
       H    -6.14796   11.97079    9.62249
       O    -5.53647   11.57464   10.22287
      H1    -5.31525   10.65104    9.96464
       H    -6.08602    4.13246    5.35740
       O    -5.77772    3.76151    6.16693
      H1    -4.85873    3.75127    5.90598
       H    -3.01951    5.75841   14.59794
       O    -3.15716    6.16747   13.70573
      H1    -3.48890    7.08110   13.81555
       H    -6.66677   10.72214    7.33685
       O    -6.53215   11.59153    6.86485
      H1    -7.39186   11.98675    6.63300
       H    -5.13539    5.53967    3.23222
       O    -5.86667    5.29096    3.86183
      H1    -5.69362    5.93291    4.51550
       H    -1.96846    3.45486   11.46609
       O    -1.16928    2.92543   11.32177
      H1    -1.31166    2.01947   11.59509
       H    -4.41568    2.62483   10.33124
       O    -4.59059    2.39498    9.37652
      H1    -5.05020    1.56456    9.28321
       H    -3.12795    7.93892    7.64397
       O    -3.21010    8.16472    6.66639
      H1    -2.78387    9.02297    6.56145
       H    -4.12274   13.04099    5.02986
       O    -4.44439   12.16962    4.84993
      H1    -5.06861   12.01192    5.60250

