129
frame 1 | Written by MDAnalysis XYZWriter (release 2.4.3)
       H    17.64966  -11.14441   15.14890
       O    17.86804  -11.80876   15.80493
      H1    17.01335  -12.18593   16.12556
       H     9.38239   -2.80629   16.66191
       O     9.86744   -2.87005   17.47713
      H1    10.04684   -3.79300   17.61097
       H    16.37897   -2.96396   17.16204
       O    16.02428   -2.15718   16.71880
      H1    15.23176   -2.50122   16.28915
       H    12.69391  -14.38005   15.54099
       O    11.84286  -14.42205   15.96087
      H1    11.06056  -14.45903   15.32347
       H    14.26887   -7.21272   12.12042
       O    13.78956   -7.32143   11.26952
      H1    14.25070   -6.87909   10.55726
       H    13.19949  -11.52423   15.74244
       O    12.76562  -10.68558   15.56038
      H1    12.25399  -10.74144   14.72363
       H    14.88081  -12.80695   17.07532
       O    15.18219  -12.19920   16.39163
      H1    15.21708  -11.36109   16.77874
       H    10.26784   -8.85195   16.98622
       O     9.77761   -8.35556   16.27500
      H1     9.17048   -7.74932   16.80982
       H    12.15346   -7.14433   14.27048
       O    11.30456   -6.69693   14.24910
      H1    10.59110   -7.34149   14.59125
       H    11.45598   -4.72610   13.74561
       O    11.66147   -3.82308   13.99614
      H1    11.84310   -3.46789   13.11951
       H    12.13239  -10.07757   17.15879
       O    11.78774   -9.69180   17.98261
      H1    11.67453  -10.48362   18.50392
       H    13.20745   -8.70464   19.13302
       O    13.95353   -8.42141   19.65605
      H1    14.14519   -7.50827   19.52895
       H    12.85574   -3.01526   15.01488
       O    13.56960   -2.50857   15.36855
      H1    13.11752   -1.86404   15.96342
       H    10.84647  -12.67301   19.29769
       O    10.77133  -12.38188   18.33910
      H1    10.89540  -13.18659   17.81210
       H    14.97781   -8.88571   16.38547
       O    14.66696   -8.69997   15.51361
      H1    13.85994   -9.28646   15.45052
       H     7.96458  -11.89989   18.56078
       O     7.66291  -11.84341   17.59690
      H1     8.50783  -11.78808   17.16719
       H    10.85850  -11.61471   12.46443
       O    11.39719  -11.45382   13.21494
      H1    12.22293  -11.92474   13.05816
       H     9.49125   -8.84402   12.83693
       O     9.32528   -7.99422   12.47065
      H1    10.12606   -7.49269   12.37698
       H    10.22409   -6.21525   17.09298
       O    11.10401   -5.72820   17.02173
      H1    11.30356   -5.93243   16.11912
       H    15.04673  -14.75620   14.13647
       O    14.19967  -14.35423   13.96423
      H1    14.43118  -13.55854   13.35370
       H    16.38174  -10.23155   18.27463
       O    15.60552   -9.83992   17.88775
      H1    15.20426   -9.24421   18.56243
       H    11.06614  -17.03993   17.92791
       O    11.14691  -16.84185   17.02034
      H1    11.33436  -15.89339   16.83210
       H     6.66743   -9.20104   18.83467
       O     6.68810   -8.96965   17.89601
      H1     7.17416   -9.73337   17.60020
       H    15.43935   -7.75468   14.17442
       O    15.44420   -7.29074   13.32886
      H1    15.50319   -6.38324   13.59641
       H    15.07989  -13.87819   18.77063
       O    14.29481  -13.99896   18.28322
      H1    13.58912  -14.28189   18.91501
       H    13.04160   -4.96844   17.44298
       O    13.90261   -4.58778   17.40254
      H1    13.82909   -3.84776   16.77442
       H    14.67106  -11.25368   12.24316
       O    14.30177  -12.12053   12.17037
      H1    14.58528  -12.37095   11.30392
       H    12.71904   -1.38448   18.38032
       O    12.32205   -1.21535   17.50939
      H1    11.70885   -1.94126   17.43644
       H    17.11186   -4.51901   17.84395
       O    16.46130   -4.41926   18.51855
      H1    15.67428   -4.84113   18.17380
       H    17.90676   -8.97198   14.25366
       O    17.76470   -9.86261   13.81274
      H1    17.01230   -9.74610   13.27349
       H     9.56160   -9.87438   15.36046
       O     9.23275  -10.44610   14.67649
      H1     9.98256  -10.83930   14.24783
       H     7.05891  -13.41854   17.83892
       O     6.57388  -14.25505   17.98310
      H1     5.70234  -14.06619   17.51562
       H    17.65761   -5.40307   15.76654
       O    17.46341   -4.47418   15.93385
      H1    18.33009   -4.03534   15.93914
       H     7.39252  -10.39944   13.89718
       O     6.75385  -10.41180   13.18576
      H1     5.88333  -10.64157   13.58076
       H     5.86086   -6.34324   15.66218
       O     6.58022   -5.72653   15.47458
      H1     6.15286   -4.85197   15.33745
       H    19.10254   -6.92933   15.32018
       O    18.33879   -7.55813   15.49550
      H1    18.48527   -7.91233   16.38178
       H    15.47218   -2.84177   19.47611
       O    14.86826   -2.17008   19.27654
      H1    15.24822   -1.80330   18.46449
       H    16.65471   -4.53668   14.44323
       O    16.36432   -4.81492   13.56066
      H1    16.45003   -3.96100   13.12206
       H    15.92965  -10.03723   10.62834
       O    15.98119   -9.75888   11.50980
      H1    15.61633   -8.86392   11.52625
       H     7.61924   -6.24824   16.72713
       O     8.11032   -6.65753   17.42954
      H1     7.51482   -7.35656   17.70944
       H    19.07103   -7.26125   18.26591
       O    19.06849   -6.32919   18.47532
      H1    18.34108   -6.37170   19.16208
       H    14.50402  -16.93751   16.85436
       O    15.12376  -16.45564   17.36609
      H1    14.71895  -15.65062   17.67186
       H    10.34997   -2.63959   14.65311
       O     9.42600   -2.33709   14.73930
      H1     9.43849   -1.39006   14.62966

