129
frame 6 | Written by MDAnalysis XYZWriter (release 2.4.3)
       H     8.33031    8.13509   11.98071
       O     8.71168    7.64264   11.27740
      H1     8.32944    8.14984   10.56502
       H    13.35962    9.27334    2.54354
       O    13.25578    8.49340    1.99515
      H1    13.63838    8.77456    1.12012
       H     8.04991   10.10401    3.80057
       O     8.59952   10.04280    3.00430
      H1     8.97278   10.97560    3.00586
       H    10.01747    8.90783   11.32306
       O    10.54618    9.72228   11.46550
      H1    10.58087   10.27332   10.64824
       H    11.78601   11.46133    9.10090
       O    10.92694   11.55373    9.49815
      H1    10.94901   12.42766   10.00112
       H     5.91709    5.29870    5.16904
       O     5.38364    4.87664    5.87484
      H1     5.91595    5.01585    6.69247
       H    12.85159    3.82295    4.34076
       O    12.38898    4.64638    4.66901
      H1    11.54599    4.73452    4.23668
       H    10.14251    6.39409    5.26554
       O     9.55856    5.79381    4.82410
      H1     9.82456    4.91215    4.94995
       H    14.33520    9.96467    9.52931
       O    14.91929    9.42310   10.15960
      H1    15.26110    8.67804    9.57613
       H     8.76147    9.69125    0.94971
       O     9.57298    9.78388    0.38454
      H1     9.57579    8.92410   -0.08182
       H    12.47004    7.29429    6.30202
       O    12.46853    7.78434    5.45178
      H1    11.60214    8.21668    5.35823
       H     3.98036   11.65753    6.96777
       O     3.06177   11.86858    7.12500
      H1     2.92598   11.69266    8.11462
       H    10.89574    6.36703    1.62496
       O    11.02583    5.45776    1.39496
      H1    11.58325    5.46877    0.62909
       H    16.03825    6.92712    6.32317
       O    16.16215    7.11607    5.34598
      H1    15.38948    6.76593    4.83902
       H     7.86493    6.04905    4.09918
       O     6.96661    5.92898    3.77803
      H1     6.99419    6.01295    2.76970
       H     9.36146    8.13089    8.13024
       O     8.38682    8.27348    8.11250
      H1     8.26923    9.27787    8.11237
       H     9.99578    9.97627    5.97485
       O    10.05571    9.18530    5.38312
      H1     9.67788    9.47752    4.55870
       H    10.62540   14.51371    5.15974
       O    11.01598   13.66711    4.90209
      H1    11.72756   14.03529    4.33245
       H     6.87128    6.53070    8.02249
       O     6.37541    5.72132    8.26333
      H1     5.67220    6.14235    8.77625
       H    13.95208    6.97324    3.03922
       O    14.21869    6.15158    3.42882
      H1    13.57594    6.05898    4.15021
       H    14.54607   13.30257    6.21747
       O    14.30373   12.55948    5.69115
      H1    13.74116   12.02013    6.23413
       H     9.39358   16.44015    6.21394
       O     9.72542   15.83763    5.49476
      H1     8.94715   15.55295    5.01387
       H    11.44985    5.62937   10.34120
       O    11.04800    6.36150    9.79472
      H1    10.45403    6.74168   10.42828
       H     6.82278   14.58796    3.51662
       O     7.23533   15.30272    3.92885
      H1     6.94392   15.25041    4.84805
       H     6.04039   11.71416   10.95599
       O     6.71933   11.00501   10.94733
      H1     7.45115   11.40320   11.37392
       H    14.34531   11.81214    8.75973
       O    13.65308   11.17734    8.44778
      H1    14.19623   10.70982    7.82037
       H     5.37921   11.32540    3.23389
       O     5.89064   10.83029    3.88779
      H1     5.41996   10.00001    4.06587
       H    13.81439    8.89357    6.26497
       O    14.57008    9.34036    6.72779
      H1    15.30256    9.24493    6.09410
       H     5.89906   11.57668    5.55740
       O     5.70009   11.86299    6.41071
      H1     6.19020   11.31259    7.05101
       H    12.08767    6.46433    8.47259
       O    12.66119    6.41993    7.68154
      H1    12.55109    5.47518    7.46487
       H    10.32975   11.44982    7.76860
       O     9.74445   11.56441    6.95752
      H1    10.27572   12.04596    6.34763
       H     8.27213   11.28447    8.03255
       O     7.49305   10.71861    8.23512
      H1     7.27500   10.92777    9.17520
       H     5.92556   13.77019    6.34387
       O     6.01927   14.74595    6.30518
      H1     5.22378   15.24209    6.53280
       H    11.93526    3.91714    6.51777
       O    12.08586    3.79979    7.48843
      H1    11.22873    3.50829    7.87920
       H    10.33831    8.76906    1.92302
       O    10.63283    7.96160    2.37912
      H1    11.59424    8.12019    2.27876
       H    11.53850   12.62858    1.15236
       O    11.02410   12.28772    0.42598
      H1    11.37325   12.86421   -0.27830
       H     7.67029   12.76912    1.69671
       O     6.87097   12.84020    1.14871
      H1     7.00911   13.64614    0.55811
       H    10.78296   15.24943    0.73764
       O     9.86258   14.97738    0.88808
      H1     9.80751   14.15920    1.41746
       H    14.76917    6.52269    8.04634
       O    15.67317    6.24731    7.84538
      H1    16.03740    6.02406    8.70509
       H     4.12969    8.12866    4.68567
       O     4.69393    8.12652    3.89065
      H1     5.40075    7.44114    4.04742
       H    14.68366   10.50702    3.36145
       O    13.80677   10.85582    3.54923
      H1    14.05896   11.71328    3.99671
       H    13.41809   13.86203    2.64654
       O    12.89264   13.10296    2.34014
      H1    13.21823   12.30206    2.78676
       H    10.12664   13.09284    3.13252
       O     9.48763   12.65436    2.57638
      H1     9.95395   12.26582    1.75941

