129
frame 4 | Written by MDAnalysis XYZWriter (release 2.4.3)
       H    13.47100  -13.15555    4.30671
       O    12.63301  -13.07572    3.79538
      H1    12.01540  -13.79670    4.03394
       H     9.30972   -9.24491    6.74154
       O     8.41966   -9.45631    6.32695
      H1     8.54681  -10.05664    5.52442
       H    13.07414   -5.04824    3.93908
       O    13.79696   -5.25087    4.67174
      H1    14.47967   -5.73427    4.20194
       H    12.87439  -11.16621    1.03607
       O    12.37621  -10.57299    0.47118
      H1    11.95875  -11.16075   -0.22443
       H    17.15397  -10.53644    0.72335
       O    16.85254   -9.86269    1.39757
      H1    15.88486   -9.66681    1.44065
       H     6.09718   -7.04857    4.19119
       O     6.41913   -6.14689    4.32201
      H1     5.60684   -5.53450    4.21555
       H     7.77295   -5.93050    6.05453
       O     7.92330   -6.18000    6.97708
      H1     8.43322   -6.98474    6.83334
       H    13.85161  -12.53424    2.44933
       O    14.22376  -12.57893    1.55529
      H1    15.09487  -12.98610    1.61607
       H     6.76197   -5.41303    2.56188
       O     7.43467   -5.09358    1.89448
      H1     6.94078   -4.47387    1.32332
       H    10.70506   -3.88242    6.87364
       O    11.63366   -4.24009    6.79878
      H1    11.82313   -4.13621    5.86748
       H    13.54286   -9.09977    6.57406
       O    13.47611  -10.07841    6.70484
      H1    14.19882  -10.57485    6.29436
       H    13.08190   -3.98216    7.82823
       O    14.10909   -3.99258    7.89788
      H1    14.36224   -3.36142    7.17577
       H     5.15222   -9.52880    2.50602
       O     5.56979  -10.28715    2.06666
      H1     6.52539  -10.07079    2.17373
       H    13.65744   -9.35655    3.16885
       O    14.42477   -9.11679    2.59825
      H1    15.06399   -8.58036    3.12767
       H    10.24092   -1.85151    3.44638
       O     9.85948   -1.95453    4.31586
      H1     8.89538   -1.76536    4.24082
       H    12.28937  -11.37329    4.00405
       O    12.10351  -10.41046    4.05307
      H1    12.38405  -10.19842    4.94911
       H     8.82889   -9.20515    1.55149
       O     8.33948  -10.02985    1.43269
      H1     8.35269  -10.03971    0.46166
       H    16.56624   -6.82384    4.22974
       O    15.77911   -7.27309    4.61916
      H1    16.04093   -7.34720    5.51625
       H    11.93914   -3.94383   -0.56647
       O    11.68908   -4.89664   -0.46132
      H1    12.30606   -5.40243   -1.08846
       H    14.28045   -3.68762    5.24785
       O    14.52817   -2.79607    5.57128
      H1    15.45149   -2.67830    5.31108
       H    14.42905   -8.70838    9.19602
       O    15.03014   -9.34777    8.82415
      H1    14.47241   -9.83619    8.17694
       H    11.70525   -7.53066    5.05852
       O    10.95615   -7.37042    4.45414
      H1    11.27677   -7.55062    3.55654
       H    12.13977   -1.96220    2.29713
       O    11.39168   -2.06539    1.70227
      H1    11.18590   -3.01984    1.97644
       H    14.11208  -10.09968   -0.63622
       O    14.80764   -9.82921   -1.27209
      H1    15.08199   -8.90837   -1.05811
       H     5.49300   -8.40112    7.05778
       O     5.84428   -9.32419    7.06470
      H1     6.83164   -9.28655    7.03770
       H     8.79510  -10.67298    3.28801
       O     9.31276  -11.12809    4.02286
      H1    10.14447  -10.64627    4.06605
       H     9.47622   -6.27979   -1.03463
       O     8.98697   -6.10388   -1.88495
      H1     9.12367   -7.00229   -2.22568
       H    15.89711   -3.82992    0.33304
       O    14.91090   -3.84829    0.25141
      H1    14.84787   -3.45317   -0.65107
       H    11.62531   -5.14811    2.24143
       O    11.59026   -4.52220    2.98383
      H1    10.74509   -4.68674    3.47472
       H     8.42554   -5.42724    4.02343
       O     9.23010   -5.16858    4.46003
      H1     9.65712   -5.97885    4.48911
       H    13.72550   -1.77903    4.49794
       O    13.23818   -1.41769    3.72211
      H1    13.01151   -0.48348    3.87333
       H    12.55580   -7.09004    6.89687
       O    13.06287   -7.56683    6.26366
      H1    13.37281   -6.88570    5.63196
       H    14.58342   -6.78222    1.16853
       O    14.08759   -6.16766    1.76445
      H1    14.24533   -5.36182    1.22502
       H    12.44895   -7.16945    1.54923
       O    11.73826   -7.81646    1.82115
      H1    12.16264   -8.63861    1.51995
       H    11.36428   -5.64427    7.67749
       O    11.29491   -6.52003    8.16509
      H1    11.32519   -6.18517    9.11938
       H    16.06985   -8.33918    7.44446
       O    16.63294   -7.66412    6.98690
      H1    17.47490   -8.08490    6.91740
       H    10.21543   -7.43835    0.84039
       O     9.29055   -7.46046    0.54559
      H1     8.91484   -6.71011    1.10296
       H    16.30624   -6.79087   -0.44839
       O    15.82658   -7.54160   -0.16471
      H1    16.42383   -7.98350    0.44013
       H     8.44085   -3.72769    7.64847
       O     8.95873   -3.35768    6.90448
      H1     8.82797   -3.92403    6.16333
       H     9.75758  -12.28365    2.13446
       O     9.76183  -13.07535    1.54121
      H1    10.66283  -13.03913    1.14944
       H     5.79222   -5.71444   -1.48037
       O     6.07774   -6.55045   -1.18384
      H1     6.97915   -6.48518   -0.86779
       H    10.43275  -12.01413    8.07935
       O    11.33488  -12.17174    7.72290
      H1    11.09365  -13.01014    7.31116
       H    11.28001   -8.81737    8.51159
       O    10.75434   -9.32341    7.86352
      H1    11.37843  -10.03438    7.69011

