129
frame 4 | Written by MDAnalysis XYZWriter (release 2.4.3)
       H     8.70132  -12.65193    9.79467
       O     9.04460  -13.35266    9.21759
      H1     8.46368  -14.03236    9.52378
       H    16.38526  -11.49213   14.76877
       O    16.28388  -12.27962   15.37420
      H1    15.67708  -12.00868   16.05026
       H    11.76332  -17.76150   12.21086
       O    12.49064  -17.95107   11.58105
      H1    12.16049  -17.86198   10.66021
       H     9.59466  -13.40677   13.76427
       O     9.90621  -14.22117   14.20859
      H1     9.15769  -14.40356   14.79722
       H    17.96721  -14.33912   17.76641
       O    17.92101  -15.03737   17.08323
      H1    18.41397  -15.77132   17.47663
       H    14.45096  -16.43041   14.16325
       O    13.72229  -16.37173   14.83694
      H1    12.92213  -16.52344   14.29382
       H     8.89121  -11.15212   11.57628
       O     8.84443  -10.92201   10.63940
      H1     9.26396  -10.05822   10.47552
       H    12.78644  -14.20670   15.48616
       O    11.98745  -13.86407   15.97850
      H1    11.30474  -13.94080   15.28241
       H    12.39725  -11.03225   15.39545
       O    12.00377  -10.29551   14.88483
      H1    11.77825  -10.69417   14.03561
       H    17.21691  -15.92888   12.95288
       O    17.51725  -16.39977   12.15108
      H1    18.46788  -16.23372   12.09572
       H    19.03081  -12.89938   11.99400
       O    18.91241  -12.49822   11.05502
      H1    19.74168  -12.70104   10.54744
       H    10.23215  -15.89146   13.39868
       O    10.62860  -16.73842   13.29606
      H1    10.76836  -16.93979   14.23926
       H    16.72105  -18.22084   16.61965
       O    16.81680  -18.81754   15.89381
      H1    16.82347  -19.68667   16.34263
       H    14.47991  -12.62518   17.38703
       O    14.39039  -11.66564   17.18927
      H1    14.63135  -11.08357   17.91174
       H    13.44308  -13.70038    9.40477
       O    13.36432  -12.72579    9.24606
      H1    12.52790  -12.56748    8.66874
       H    10.84871  -12.83552   19.06579
       O    11.63420  -13.31982   18.82717
      H1    11.58225  -13.29427   17.86509
       H    14.28159   -8.12288   15.02774
       O    13.87425   -8.31139   14.17596
      H1    13.34159   -9.12855   14.31416
       H     7.80942  -17.88225   10.65539
       O     8.37324  -17.19685   11.05032
      H1     8.01607  -16.99760   11.89065
       H    11.72211  -11.56496   11.41765
       O    11.98846  -10.82285   12.03795
      H1    12.94664  -10.86058   12.15383
       H    10.90481  -17.46071    8.57819
       O    10.81069  -17.81411    9.45322
      H1    10.12243  -17.36237    9.99384
       H    10.95166   -9.37406   11.31191
       O    10.30279   -8.72240   10.96702
      H1    10.78359   -7.84644   10.91016
       H    17.22820  -18.45792   12.30817
       O    16.87303  -19.37888   12.32577
      H1    15.94804  -19.39513   12.08769
       H    14.69390  -12.33484    8.06424
       O    15.24733  -12.36365    7.26676
      H1    16.16332  -12.22495    7.49573
       H    14.26883  -14.21863   14.25360
       O    13.63375  -13.75795   13.68807
      H1    14.18556  -12.98912   13.27723
       H    17.38708  -18.62010    9.67905
       O    18.04063  -19.27249   10.00865
      H1    17.71042  -19.40966   10.96431
       H     8.68986  -11.15541   13.43852
       O     8.81580  -11.97693   12.97723
      H1     7.91662  -12.32830   12.88228
       H    12.07400  -15.76164   18.50368
       O    12.63178  -15.93979   17.77726
      H1    12.43376  -15.18874   17.21277
       H    14.45113  -15.52743   10.32749
       O    14.44756  -15.22733    9.43713
      H1    15.34033  -14.86526    9.36101
       H    15.36700  -14.08505   18.80604
       O    14.84909  -14.14773   17.95806
      H1    14.25935  -14.93973   18.04160
       H    10.20490  -17.68240   16.47757
       O    11.08230  -17.44882   16.09319
      H1    11.53467  -16.95262   16.77759
       H    15.51235  -11.25375   11.57793
       O    14.67073  -11.71118   11.80130
      H1    14.37168  -12.01931   10.89630
       H    13.98020  -16.54422    8.55346
       O    13.98409  -17.28538    7.89910
      H1    13.85644  -18.16967    8.36618
       H    13.39792  -16.57323   11.92432
       O    14.06495  -15.90254   12.05057
      H1    13.56167  -15.06779   12.40229
       H    17.90273  -13.81504   10.26910
       O    17.30682  -14.50171   10.02488
      H1    17.19548  -15.11890   10.82623
       H    16.36436  -14.02326   14.71917
       O    16.55454  -14.86039   14.26304
      H1    17.17309  -15.41661   14.73487
       H    17.95551   -9.96884   14.30421
       O    17.95223  -10.77744   13.74987
      H1    18.08585  -10.36565   12.89811
       H     6.44871  -15.00704    9.44122
       O     7.09792  -14.97509   10.11466
      H1     7.50334  -15.87180   10.25280
       H    16.76640  -16.72276    8.99624
       O    16.55938  -17.51025    8.56378
      H1    15.67032  -17.53617    8.19524
       H    10.62433  -16.29884    6.74916
       O    11.05096  -17.08090    6.99035
      H1    12.01084  -16.96009    7.04123
       H    17.43670  -10.99161   10.11166
       O    17.07189  -10.21456   10.65142
      H1    16.28022   -9.93873   10.21373
       H    15.17436  -17.13457   17.02584
       O    15.84508  -16.87016   17.62310
      H1    16.11922  -15.91001   17.39689
       H    10.43275  -12.01413    8.07935
       O    11.33488  -12.17174    7.72290
      H1    11.09365  -13.01014    7.31116
       H    10.82848  -19.87381   13.17488
       O    10.25025  -19.53020   12.46586
      H1    10.24598  -18.58450   12.65857

