129
frame 3 | Written by MDAnalysis XYZWriter (release 2.4.3)
       H     2.07039   18.53745   -7.72598
       O     2.05131   17.80796   -8.37764
      H1     2.94319   17.59730   -8.47668
       H    -2.71524   17.59784   -3.65696
       O    -3.04064   17.34228   -2.78799
      H1    -2.79633   18.03361   -2.18144
       H     8.11934   16.15219    2.44867
       O     7.55546   16.47617    3.15263
      H1     7.07213   15.77812    3.45861
       H    -0.66653   14.95923   -2.29652
       O    -1.62094   15.04898   -2.23685
      H1    -1.85982   15.98928   -2.45914
       H     1.75969   10.24008   -1.31326
       O     1.77450    9.39903   -1.73551
      H1     2.50575    8.96709   -1.25795
       H     7.51065   12.50305   -2.95376
       O     6.73292   12.65540   -3.47966
      H1     7.14505   12.60148   -4.34577
       H     2.47586   19.77294    0.43866
       O     2.36212   18.87098    0.13666
      H1     1.43060   18.67626    0.17416
       H    -2.17018   15.64083    1.76549
       O    -1.56460   16.28400    2.10519
      H1    -2.15254   17.05252    2.21971
       H    -2.13554   17.89402   -6.14425
       O    -1.59029   17.31611   -5.57071
      H1    -0.96308   17.89903   -5.11958
       H     1.12212   12.80451   -0.49233
       O     1.68017   12.02894   -0.59678
      H1     2.39563   12.34464   -1.12284
       H     3.28784   20.09048    4.78639
       O     3.33495   19.19515    4.57353
      H1     3.54563   19.15104    3.67034
       H     5.15036   15.31361   -3.10547
       O     5.40031   16.12796   -2.56635
      H1     5.81365   16.68633   -3.26623
       H     2.99082   17.14981   -1.18712
       O     2.89711   17.11522   -2.17494
      H1     3.76628   16.69294   -2.46499
       H     0.62948   18.82552    3.39292
       O     1.03011   17.91143    3.58655
      H1     1.90748   18.06468    3.99805
       H     4.44392   14.49781    1.35310
       O     4.66759   15.26783    0.79002
      H1     4.55087   16.09987    1.40273
       H     4.24782   17.48341   -6.49992
       O     4.66422   16.93271   -7.15371
      H1     4.14020   16.02637   -7.06363
       H     7.61078   14.76542   -1.25679
       O     8.56134   14.54869   -1.07187
      H1     8.99040   15.25362   -0.58097
       H    -0.12633   14.15097    2.60133
       O     0.71777   14.34881    2.14654
      H1     0.81873   15.24046    2.37291
       H    -0.22076   14.15930    0.60036
       O    -0.66297   13.72830   -0.15548
      H1    -1.12036   14.39775   -0.63899
       H     6.08994   18.40218   -2.05765
       O     5.87866   19.28658   -1.64454
      H1     4.95959   19.34764   -2.06662
       H     2.87282   11.61355   -4.97425
       O     3.12838   11.15671   -4.21238
      H1     2.30036   10.71242   -3.94156
       H     0.36187   19.46223   -4.90800
       O    -0.13788   19.05781   -4.25948
      H1    -0.81974   19.68210   -4.02034
       H    -0.55767   17.10086    0.56469
       O    -0.26699   17.53587   -0.23896
      H1    -0.31878   17.07371   -1.05042
       H     3.82122   13.80258   -4.09180
       O     4.63950   14.14755   -4.36950
      H1     5.35902   13.58308   -3.96019
       H     5.90749   13.67499    3.40807
       O     6.79558   13.86716    3.84121
      H1     6.67577   13.58227    4.73399
       H    -2.54662   11.21824    0.65905
       O    -1.84308   11.27582   -0.00297
      H1    -1.40038   12.12606    0.08733
       H     3.90038   19.29101   -5.07903
       O     3.61687   18.36026   -4.97542
      H1     2.78657   18.32811   -5.44588
       H    -1.50530   18.92832   -0.63587
       O    -2.15347   19.36239   -1.26031
      H1    -2.67013   19.85098   -0.62245
       H     2.27378   11.15033    2.46572
       O     2.74112   10.95459    1.56677
      H1     2.26741   11.53085    0.90308
       H     6.35290   19.45435    0.22382
       O     6.43618   19.03236    1.08877
      H1     7.03065   19.56600    1.63969
       H     5.49238   18.08989   -5.02236
       O     6.36547   17.82422   -4.63571
      H1     6.91533   17.62517   -5.40321
       H     1.69243   15.69447   -2.36806
       O     1.08470   14.95011   -2.49183
      H1     0.83399   15.00632   -3.43406
       H     8.12782   18.06791    0.02846
       O     8.79958   18.70931   -0.26961
      H1     8.20174   19.43894   -0.59466
       H     4.97127   18.44751    1.68871
       O     4.14289   18.02286    2.02467
      H1     3.53430   18.22029    1.30851
       H     3.88171   14.19383   -6.16168
       O     3.64396   14.28137   -7.06820
      H1     4.38742   13.86839   -7.55197
       H    -0.46911   15.72953   -5.68009
       O     0.16937   15.07812   -5.34236
      H1    -0.33737   14.19229   -5.40895
       H     0.68443   11.91885    4.07300
       O     1.58681   12.20312    3.81962
      H1     1.40389   12.95254    3.17973
       H    -0.08914   17.62033    4.68824
       O    -0.80998   17.43413    5.30436
      H1    -1.21143   16.65607    4.94064
       H     7.97069   12.62248    1.34880
       O     7.67014   12.41635    0.46620
      H1     8.05370   13.22998   -0.02311
       H    -0.00628   12.06429   -2.32491
       O    -0.39034   11.78637   -3.15639
      H1    -1.04276   11.11966   -2.79554
       H     4.40054   13.98610   -1.03919
       O     4.14395   13.23346   -1.59644
      H1     4.84979   12.99250   -2.21125
       H     5.13228   18.51251    4.37136
       O     6.01919   18.53245    4.75070
      H1     6.47287   17.71265    4.48314
       H     5.55161   12.56852    1.69002
       O     4.71855   12.75881    2.12997
      H1     4.04139   12.12418    1.82525

