129
frame 3 | Written by MDAnalysis XYZWriter (release 2.4.3)
       H     9.27240   18.10851   11.58754
       O     9.30053   17.20090   11.21476
      H1     8.43525   16.81791   11.52194
       H    12.28052   19.63093   13.56505
       O    12.47566   18.89097   12.97786
      H1    13.18483   19.16570   12.40689
       H     9.39542   14.97993    8.61427
       O     8.54223   14.60764    8.48960
      H1     8.71878   13.88537    7.90663
       H    12.44565   14.12778   16.31526
       O    13.23618   14.10385   16.93997
      H1    13.07592   13.31679   17.50086
       H    12.83717   11.70604    8.06588
       O    11.91712   11.90790    8.36455
      H1    12.07499   12.47966    9.14885
       H    14.79281   16.98754    7.29474
       O    15.46627   17.06364    7.96487
      H1    15.92476   16.22631    8.08333
       H     5.16465   17.45783   11.47941
       O     4.80844   16.61325   11.75574
      H1     4.87883   16.04237   10.97796
       H     6.44645   15.69944   12.32454
       O     7.33748   15.91872   12.53364
      H1     7.76323   15.06005   12.56030
       H     8.19584   19.56131    8.64258
       O     7.26520   19.61752    8.45622
      H1     6.90338   19.30522    9.32465
       H    14.06171   10.24945   11.80302
       O    13.36928   10.60867   12.35959
      H1    12.59462   10.06162   12.39285
       H    12.29815   16.92528    2.58963
       O    12.05632   16.02676    2.82270
      H1    12.02425   15.98579    3.81269
       H     3.37707   15.15021    6.87282
       O     3.92266   15.36108    7.62835
      H1     3.84528   16.32105    7.65242
       H    10.49032   16.67166    9.91702
       O    10.93666   16.19079    9.10885
      H1    11.88090   16.46011    9.31785
       H    11.15339   18.06158    8.24296
       O    11.65951   18.92592    8.01236
      H1    11.27792   19.60922    8.51213
       H    17.00341   14.30683    9.23351
       O    17.12855   15.26896    9.50774
      H1    17.46076   15.34296   10.38276
       H    10.81382   14.94092   14.70058
       O    11.14796   14.07472   15.00734
      H1    11.84239   13.92175   14.33554
       H    12.93214   19.45642   16.19147
       O    12.64580   18.58234   16.35924
      H1    11.64567   18.56788   16.22148
       H     9.70520   13.29012   13.61740
       O     8.79133   13.23408   13.17410
      H1     8.03366   13.03988   13.72289
       H    12.93778   17.49860    5.81426
       O    13.87491   17.47936    5.47974
      H1    13.99994   18.48240    5.54271
       H     9.75713   14.53199    5.39127
       O    10.18258   13.68136    5.44418
      H1    11.15257   13.86016    5.47929
       H     7.79936   18.04627    7.84814
       O     8.42188   17.30949    7.73898
      H1     8.01724   16.56164    8.20391
       H     5.51738   13.54911   10.92811
       O     5.12158   12.93481   11.58483
      H1     4.19511   12.86345   11.30577
       H    13.58541   14.65339    6.08989
       O    12.62558   14.70710    6.07116
      H1    12.48235   14.17169    6.83665
       H     8.79985   16.44851    6.01600
       O     9.19708   16.12640    5.20497
      H1     8.43109   16.22868    4.57115
       H     5.90749   13.67499    3.40807
       O     6.79558   13.86716    3.84121
      H1     6.67577   13.58227    4.73399
       H     6.56924   12.02544   11.02540
       O     7.11608   11.46903   10.40411
      H1     8.02079   11.63988   10.48118
       H     9.43347   12.47453   11.76559
       O     9.89075   12.02346   10.96273
      H1    10.15662   11.19770   11.33119
       H    10.53394   11.09742    7.49205
       O     9.75732   11.22183    6.89619
      H1     9.78749   12.14380    6.58292
       H    15.33799   15.92029   12.24841
       O    14.38437   15.93054   12.41342
      H1    14.15442   14.97973   12.59195
       H    10.75930   18.24042    6.50545
       O    10.89742   18.11549    5.53556
      H1    10.35740   17.30351    5.28806
       H     7.21458   17.00360   13.99354
       O     7.20425   17.65864   14.72792
      H1     6.37977   17.49385   15.25399
       H     7.94106   10.76319    7.74320
       O     7.14559   10.25318    7.97699
      H1     6.99743   10.53560    8.87545
       H     6.57412   14.66537    9.26031
       O     5.75852   14.87538    9.75726
      H1     5.13629   15.00535    9.02996
       H     6.25344   12.65600    6.79562
       O     6.64445   13.42251    6.45924
      H1     5.95309   14.09483    6.57863
       H    10.10788   17.80760   14.98413
       O     9.67013   18.30721   15.66311
      H1     8.78477   18.08523   15.46951
       H    11.55611   14.68538    9.88664
       O    11.70672   13.93606   10.49474
      H1    10.93886   13.35599   10.45111
       H    13.82227   16.57455   10.94530
       O    13.43898   16.97947   10.09540
      H1    14.19391   17.02586    9.53129
       H    14.10043   16.72201   14.09849
       O    14.28150   16.69288   15.02268
      H1    13.72745   17.33986   15.43364
       H    15.88118   15.12431    5.58216
       O    15.43075   14.56907    6.25957
      H1    15.80955   13.70783    6.16155
       H     5.96669   19.42208   11.68344
       O     5.91829   19.16296   10.75509
      H1     5.07887   19.52781   10.45684
       H    12.51801   13.56645   12.08921
       O    12.90995   13.52993   12.96711
      H1    13.15115   12.57371   12.93150
       H    10.11751   16.48311   12.99981
       O    10.70109   16.57510   13.74097
      H1    11.48761   17.10242   13.42413
       H     5.13228   18.51251    4.37136
       O     6.01919   18.53245    4.75070
      H1     6.47287   17.71265    4.48314

