129
frame 8 | Written by MDAnalysis XYZWriter (release 2.4.3)
       H    -9.49116  -17.31203   -4.66701
       O    -9.01406  -16.80069   -5.26909
      H1    -8.15639  -17.23997   -5.28673
       H    -7.67816  -10.15696    1.56206
       O    -7.83552  -11.00717    1.10475
      H1    -7.60084  -10.86604    0.22936
       H   -14.48741  -13.72599   -0.06060
       O   -14.84314  -13.45808   -0.91278
      H1   -15.81749  -13.45729   -0.80906
       H    -7.10638  -15.18882    6.59210
       O    -6.33684  -15.16628    5.93246
      H1    -6.67096  -15.63007    5.18765
       H    -9.11827  -18.40450    2.97342
       O    -8.50038  -19.03189    3.28887
      H1    -8.89264  -19.27862    4.16108
       H    -8.47831  -11.23120    6.00983
       O    -8.74338  -11.39602    5.10035
      H1    -9.52753  -11.96796    5.07122
       H    -9.71805   -8.84994    1.31554
       O   -10.45790   -8.65929    1.93769
      H1   -10.92941   -9.51714    1.97104
       H   -10.58177  -13.93570    4.41694
       O   -10.61197  -13.16506    3.80953
      H1    -9.86137  -13.38473    3.23808
       H   -10.70700  -12.47550   -2.23105
       O    -9.97104  -11.94260   -1.79263
      H1   -10.40397  -11.15662   -1.37743
       H   -10.27242  -19.61572   -0.03521
       O   -10.63668  -19.10344   -0.71285
      H1   -11.14389  -18.40038   -0.27843
       H   -12.30403  -10.92640    3.54963
       O   -11.96996  -11.11665    2.67674
      H1   -11.37425  -11.89550    2.85565
       H   -14.13436  -15.66640    2.16476
       O   -14.85512  -15.48420    1.51211
      H1   -15.68876  -15.77188    1.84158
       H   -11.17884  -16.58772    2.97237
       O   -10.24298  -16.85047    2.82377
      H1   -10.06324  -16.43091    1.99547
       H   -10.46126  -16.02773    4.81493
       O   -10.45320  -15.23928    5.39771
      H1   -10.34538  -15.61359    6.28196
       H    -7.29059  -17.89044    4.24913
       O    -6.64487  -17.13699    4.15319
      H1    -6.97821  -16.81815    3.33973
       H    -5.58978  -11.66666    1.61157
       O    -4.90234  -12.08723    2.13105
      H1    -5.45750  -12.40770    2.85202
       H   -12.46368  -11.10845    5.64223
       O   -13.00539  -10.46460    5.16007
      H1   -12.37761   -9.71370    5.01060
       H   -10.11168   -9.74465    5.12078
       O   -10.41340   -8.82543    4.89947
      H1   -10.25025   -8.66357    3.94973
       H    -9.40603  -15.01363   -5.09223
       O    -9.61801  -14.01427   -4.99339
      H1   -10.42418  -13.97575   -4.50749
       H    -5.29703  -15.52583    0.44759
       O    -4.71102  -15.26163   -0.28012
      H1    -3.81463  -15.49681   -0.00065
       H    -5.79622  -17.69526   -3.78212
       O    -5.76860  -17.42154   -2.84498
      H1    -5.97880  -16.46224   -2.82719
       H    -7.18588  -12.36735    4.41016
       O    -6.48749  -12.94309    4.15567
      H1    -6.67699  -13.71955    4.70742
       H    -8.44788   -8.45333   -1.44493
       O    -7.98328   -8.37865   -0.52683
      H1    -7.02463   -8.35999   -0.67871
       H    -8.56694  -10.95953   -4.19257
       O    -7.76614  -10.81714   -3.67761
      H1    -7.77211  -11.50871   -3.05423
       H   -14.82554  -10.04137    1.82972
       O   -14.44682  -10.90303    1.54441
      H1   -13.57930  -10.89891    1.97992
       H    -5.55499  -13.91784   -3.34050
       O    -5.85358  -14.74021   -2.86274
      H1    -5.26195  -14.81461   -2.07016
       H    -8.89025   -9.52749   -3.21673
       O    -9.34938   -8.80820   -2.80855
      H1    -9.68447   -8.23702   -3.51888
       H    -4.48298  -18.01022    1.87463
       O    -4.90715  -18.66070    2.38370
      H1    -5.64234  -18.26872    2.86149
       H    -8.12728  -12.64263   -1.62791
       O    -7.17967  -12.51688   -1.59183
      H1    -6.77906  -13.31453   -1.93562
       H    -5.44027  -12.45720   -0.84616
       O    -4.48481  -12.70603   -0.86661
      H1    -4.40473  -13.54484   -0.34086
       H    -7.11780  -16.48972    0.69624
       O    -6.87540  -15.90168    1.46038
      H1    -7.29981  -15.04361    1.31196
       H    -8.70770  -12.65347    1.18923
       O    -8.85426  -13.49540    1.65486
      H1    -9.21229  -14.10820    0.98434
       H    -8.87390  -16.40879   -0.25845
       O    -9.66122  -15.88247    0.08052
      H1   -10.44324  -15.87367   -0.45689
       H   -12.22852  -12.64380    7.22024
       O   -11.68158  -12.60908    6.42971
      H1   -12.05439  -13.18598    5.79101
       H    -8.04243  -18.42842   -0.63350
       O    -7.49916  -17.64739   -0.61481
      H1    -6.95937  -17.57238   -1.42922
       H   -14.00958  -13.47386    4.15738
       O   -13.46392  -14.01252    4.74760
      H1   -14.13504  -14.50623    5.22099
       H    -4.65257  -11.99203    6.80824
       O    -5.17586  -11.51064    6.12012
      H1    -5.34004  -12.09566    5.34466
       H    -5.60524   -9.05047    3.08172
       O    -6.39629   -8.78154    2.61412
      H1    -6.19692   -8.17974    1.91716
       H   -12.27686  -16.22603   -0.87444
       O   -11.79263  -15.78583   -1.56126
      H1   -11.83635  -16.49660   -2.20143
       H   -13.80249  -16.96274    3.54541
       O   -13.02297  -16.40704    3.46509
      H1   -12.98173  -15.76648    4.15571
       H   -10.85658   -9.04758   -1.59264
       O   -11.47997   -9.61665   -1.14346
      H1   -12.04912   -9.97812   -1.79692
       H   -12.39074  -13.13814   -3.35243
       O   -11.59061  -13.62624   -3.13337
      H1   -11.87653  -14.31348   -2.51018
       H   -12.41167  -17.28321    1.57823
       O   -12.42639  -17.36029    0.59233
      H1   -13.32385  -17.41766    0.44476

