129
frame 7 | Written by MDAnalysis XYZWriter (release 2.4.3)
       H    -8.41930   19.35480   -7.17143
       O    -8.38327   19.22475   -6.19233
      H1    -9.29557   19.13121   -5.85659
       H    -7.62536   11.65614  -12.71358
       O    -7.71728   12.60386  -12.79470
      H1    -7.99632   12.98220  -11.90344
       H    -3.91815   13.89110  -11.16148
       O    -4.26448   13.02800  -10.93636
      H1    -4.27188   12.48382  -11.70987
       H    -3.28141   16.26665  -12.83324
       O    -3.48388   17.01212  -13.40623
      H1    -3.00464   16.83424  -14.25593
       H   -11.43188   19.71484   -5.07633
       O   -10.79515   18.98592   -4.86188
      H1   -11.22470   18.22550   -5.25278
       H   -10.68211   17.37912   -9.66943
       O   -10.42478   17.23407  -10.56397
      H1    -9.48891   17.26449  -10.51957
       H   -11.22829   19.70018   -9.24685
       O   -11.05680   19.37860   -8.35812
      H1   -11.98746   19.46453   -8.00913
       H    -0.88863   18.28687  -10.56860
       O    -0.66324   18.42478   -9.63771
      H1    -1.41590   18.83731   -9.22713
       H    -5.20331   18.89417   -2.38091
       O    -5.85225   19.58805   -2.07828
      H1    -5.81051   20.40674   -2.58412
       H   -14.12846   14.79294   -4.39604
       O   -14.13243   14.84404   -5.38083
      H1   -13.19794   14.62450   -5.63733
       H   -11.57368   15.88131  -13.78428
       O   -11.63086   14.95642  -13.58047
      H1   -10.95411   14.32283  -13.94928
       H   -10.38542   15.13613   -4.07842
       O   -10.59022   16.05711   -4.15758
      H1    -9.78342   16.47824   -3.93010
       H    -5.80844   14.24093  -10.43315
       O    -6.61292   14.74236  -10.20461
      H1    -6.26140   15.63107  -10.11590
       H    -9.77513   19.61053   -0.91224
       O    -9.51511   19.87476   -1.75775
      H1   -10.01020   19.43777   -2.45515
       H    -8.64535   18.50540  -13.22568
       O    -8.22875   18.44645  -12.35800
      H1    -7.53328   17.77023  -12.52097
       H    -9.01476   18.74682   -8.59907
       O    -8.18278   19.18020   -8.78704
      H1    -7.50761   18.50708   -8.87929
       H    -9.74423   16.56253   -7.03074
       O   -10.42689   16.52404   -7.66734
      H1   -11.10490   17.13179   -7.33065
       H    -6.21648   10.85004   -8.97546
       O    -5.50028   11.38942   -8.43667
      H1    -5.44037   12.21994   -8.92229
       H    -7.51588   17.59715   -6.20032
       O    -7.71803   16.64385   -6.01744
      H1    -7.02430   16.09125   -6.41212
       H    -5.16046   17.04856  -13.31115
       O    -6.12702   16.96757  -13.26386
      H1    -6.39860   17.24241  -14.13810
       H    -3.15642   16.08283   -5.53009
       O    -3.90589   16.69009   -5.49958
      H1    -4.44427   16.54885   -4.71484
       H   -13.31254   16.01906  -11.52855
       O   -14.04743   15.60635  -11.04135
      H1   -13.56755   15.03114  -10.47644
       H    -5.66565   16.94279   -8.43331
       O    -5.95399   17.36900   -9.23172
      H1    -5.18551   17.72299   -9.55231
       H    -7.69805   16.96918   -4.15903
       O    -7.94309   17.24856   -3.26387
      H1    -7.48954   18.07500   -3.15008
       H    -6.06797   14.54355   -6.99808
       O    -5.76018   15.44687   -7.14100
      H1    -5.00456   15.73526   -6.55531
       H    -8.09753   15.81814  -15.64594
       O    -8.01965   14.97426  -15.11099
      H1    -7.13160   14.85933  -14.76825
       H   -13.38694   17.37278   -7.30896
       O   -12.71475   17.46856   -6.60608
      H1   -12.74677   16.58280   -6.17902
       H    -9.79951   13.30329   -8.29793
       O    -9.53413   13.06435   -7.41269
      H1   -10.27017   13.45887   -6.92490
       H    -2.33884   18.42569  -12.64102
       O    -1.47030   18.70445  -12.24346
      H1    -1.61472   19.66139  -12.09111
       H    -6.26450   13.68815  -13.20792
       O    -5.59177   14.14751  -13.71190
      H1    -5.49707   15.08531  -13.42097
       H   -12.69905   13.85550   -7.56374
       O   -12.01278   14.28598   -6.97120
      H1   -11.52097   14.89967   -7.53017
       H   -15.32525   18.72504   -5.66371
       O   -14.53177   18.63729   -5.09253
      H1   -13.97885   18.10161   -5.61632
       H    -3.67478   16.80646   -2.79946
       O    -4.57704   17.08713   -2.65998
      H1    -4.86225   16.63187   -1.85761
       H   -15.00485   17.90670   -9.42451
       O   -14.15479   17.47408   -9.12611
      H1   -14.14169   16.76017   -9.75838
       H   -11.45194   17.22039  -15.47141
       O   -11.59277   17.80467  -14.70779
      H1   -12.55498   17.87401  -14.58099
       H    -6.12908   12.32414   -7.18228
       O    -6.65604   12.95766   -6.72711
      H1    -7.54776   13.01003   -7.12443
       H    -3.53415   19.71155   -5.09442
       O    -3.21400   19.28969   -5.90363
      H1    -3.43308   18.36606   -5.79332
       H   -10.09330   18.39763  -14.82101
       O    -9.19922   18.70303  -15.11787
      H1    -9.12909   19.58592  -14.73365
       H   -10.82063   20.14621  -12.53964
       O   -11.38109   19.76990  -11.85583
      H1   -11.12266   18.85997  -11.63664
       H    -2.42229   14.91446  -11.82709
       O    -3.21864   15.37345  -11.40433
      H1    -2.96492   15.83038  -10.59592
       H   -11.56398   14.88946  -11.96433
       O   -11.42235   14.69706  -11.02969
      H1   -11.07353   15.50778  -10.67231
       H    -2.66896   15.37839   -8.29340
       O    -2.89913   16.15513   -8.81017
      H1    -2.56991   16.90388   -8.30319
       H    -9.94114   13.77418  -10.54927
       O    -9.09453   13.46914  -10.10569
      H1    -8.55784   14.28998  -10.26123

