129
frame 6 | Written by MDAnalysis XYZWriter (release 2.4.3)
       H    -2.96059  -16.22794  -10.55044
       O    -3.36061  -17.06573  -10.75420
      H1    -3.66493  -16.89176  -11.68759
       H     7.16841  -18.84292   -4.12287
       O     6.84301  -19.55942   -4.65197
      H1     5.88655  -19.63494   -4.61863
       H     2.94417  -17.07108  -10.60417
       O     2.57038  -17.92665  -10.65251
      H1     2.46721  -18.11373  -11.59311
       H     1.41965  -11.46089   -6.82400
       O     1.11472  -12.12027   -7.45278
      H1     0.67028  -12.78092   -6.87190
       H    -0.51649  -19.72463   -5.82508
       O     0.34732  -19.34063   -5.76889
      H1     0.38010  -18.74424   -6.55793
       H    -3.67060  -17.94172   -4.26574
       O    -2.78497  -18.18273   -4.55012
      H1    -2.37996  -17.52332   -5.03572
       H     4.76445  -13.41381   -2.53181
       O     4.09357  -12.70510   -2.78951
      H1     3.57115  -13.23805   -3.38035
       H    -1.10838  -14.52336   -5.65540
       O    -0.79002  -13.58684   -5.80374
      H1    -1.47076  -12.96613   -6.15991
       H     6.63882  -17.23624   -9.25304
       O     6.93354  -16.52188   -9.83920
      H1     6.19139  -16.44263  -10.49838
       H    -0.24349  -12.95721   -4.22139
       O     0.59124  -12.86007   -3.70064
      H1     0.37649  -13.15551   -2.80251
       H     6.32219  -16.04215   -6.03354
       O     5.64560  -16.70889   -5.98203
      H1     4.82833  -16.41369   -6.42097
       H    -5.62466  -16.32013   -7.50755
       O    -6.44339  -16.72245   -7.89831
      H1    -6.86680  -15.93649   -8.31165
       H     2.24555  -15.36406   -0.49550
       O     1.96285  -14.53795   -0.03133
      H1     2.55091  -13.85161   -0.33323
       H    -0.50882  -16.85403  -13.27851
       O    -1.15932  -17.47521  -12.89892
      H1    -0.93037  -17.36002  -11.96485
       H     4.82568  -13.09797   -7.73333
       O     5.33631  -12.91450   -6.96012
      H1     4.78777  -12.25048   -6.57334
       H     2.64615  -19.03331  -13.39801
       O     2.39427  -18.09431  -13.39839
      H1     3.23099  -17.58672  -13.43070
       H     7.76833  -18.66311   -6.47518
       O     8.65560  -18.27306   -6.61590
      H1     8.72141  -18.43943   -7.57385
       H     6.84394  -16.14759   -3.28284
       O     6.40561  -16.98086   -3.22547
      H1     6.29619  -17.18645   -4.24781
       H     6.36812  -19.95779  -12.20189
       O     6.01292  -19.26707  -11.65167
      H1     5.06895  -19.47931  -11.61840
       H     0.93467  -18.24968   -4.41736
       O     1.05514  -17.94880   -3.49101
      H1     0.16400  -17.89847   -3.11604
       H    -4.53217  -14.55676   -7.77504
       O    -4.31400  -15.27772   -7.17738
      H1    -4.61864  -15.02295   -6.31440
       H    -2.96441  -13.88769  -11.42227
       O    -2.10780  -14.30813  -11.32617
      H1    -1.83897  -13.82617  -10.51801
       H    -6.16148  -17.36883   -4.10561
       O    -5.27811  -17.28841   -3.64807
      H1    -4.82337  -16.50321   -3.95551
       H     6.10263  -19.37215   -9.75565
       O     6.12936  -19.22071   -8.78226
      H1     5.23898  -18.87807   -8.44545
       H     0.98789  -15.75613  -12.45673
       O     0.58059  -15.46387  -13.31799
      H1     0.53139  -14.50986  -13.21324
       H    -0.30330  -11.39962  -10.37309
       O    -0.45444  -12.14963   -9.77972
      H1     0.18212  -12.07916   -9.04302
       H    -1.44650  -15.28514   -0.83097
       O    -1.92677  -16.02226   -0.42579
      H1    -1.62050  -16.68297   -1.02492
       H    -2.58964  -15.72540   -6.65530
       O    -1.88228  -16.09999   -6.09113
      H1    -1.22951  -16.47145   -6.68012
       H     5.02435  -17.09348  -12.27204
       O     4.85802  -16.34749  -11.64626
      H1     4.95037  -15.53749  -12.11926
       H    -1.41573  -11.82247   -8.39301
       O    -2.19844  -11.63609   -7.73059
      H1    -1.98982  -10.83367   -7.18413
       H     0.77967  -17.70004  -10.16181
       O    -0.14179  -17.56776  -10.07006
      H1    -0.60159  -18.41203  -10.05874
       H    -3.89562  -14.02382   -4.42841
       O    -4.16724  -14.88519   -4.09047
      H1    -4.30202  -14.86947   -3.12636
       H     3.87431  -16.65836   -1.81138
       O     3.77662  -16.19823   -2.65155
      H1     4.64050  -16.43921   -3.00388
       H    -0.82407  -13.12613   -0.81153
       O    -0.27679  -13.82665   -1.24546
      H1     0.42231  -14.09891   -0.63096
       H    -1.85798  -18.27705   -2.90862
       O    -1.57450  -18.13094   -1.98028
      H1    -1.58716  -18.99335   -1.59194
       H     2.76722  -15.30312   -3.64261
       O     2.51840  -14.53170   -4.24379
      H1     1.69789  -14.13237   -3.96533
       H     2.18044  -16.95106    0.56303
       O     2.76623  -17.05387   -0.19464
      H1     2.27135  -17.65584   -0.79701
       H     0.69655  -16.36606   -7.31717
       O     0.22320  -17.16071   -7.45077
      H1     0.14815  -17.22988   -8.44865
       H     2.82959  -14.49242  -10.18314
       O     2.06538  -15.09630  -10.18894
      H1     1.24575  -14.64290  -10.33367
       H     4.92706  -13.23161  -10.08722
       O     4.58152  -14.05624   -9.64119
      H1     5.04145  -14.69403  -10.22318
       H     2.75484  -14.73118   -7.62310
       O     2.39879  -15.38481   -7.04542
      H1     2.50642  -15.04105   -6.12793
       H    -4.86233  -17.77231   -9.98783
       O    -5.32296  -18.47463   -9.56995
      H1    -5.88523  -18.00300   -8.92686
       H     3.16950  -18.56507   -9.00668
       O     3.49722  -18.78195   -8.11331
      H1     3.28400  -18.03819   -7.54194

