129
frame 5 | Written by MDAnalysis XYZWriter (release 2.4.3)
       H    -8.05522   -8.52750  -17.58099
       O    -8.06001   -9.43881  -17.94627
      H1    -7.45352   -9.50855  -18.74225
       H   -12.07755  -13.44814  -16.52413
       O   -12.42072  -12.57414  -16.71819
      H1   -12.72337  -12.18822  -15.92800
       H    -9.55593   -4.08680  -16.72569
       O    -9.72310   -4.96657  -17.16383
      H1    -9.94873   -4.59138  -18.04594
       H   -16.82108   -6.37544  -13.97665
       O   -17.40689   -5.66965  -13.65071
      H1   -18.13952   -6.06494  -13.09604
       H   -10.11991  -10.10585  -13.45294
       O   -10.90911  -10.50044  -13.83833
      H1   -10.67013  -11.32094  -14.23363
       H   -15.39038   -2.54671  -12.22233
       O   -14.50893   -2.96518  -11.97031
      H1   -14.77561   -3.86697  -11.76926
       H   -11.77200   -4.60159  -11.12066
       O   -12.00995   -5.02837  -10.24364
      H1   -12.06310   -4.22893   -9.71436
       H   -14.07902   -9.96936  -12.07939
       O   -14.67731   -9.75397  -12.80154
      H1   -14.77601   -8.83810  -13.05270
       H   -10.47926  -11.86046   -9.88064
       O   -10.52589  -11.60460   -8.98100
      H1   -10.28992  -12.41554   -8.46265
       H    -7.04755   -9.78368  -14.82329
       O    -6.37563   -9.97852  -15.51814
      H1    -6.70708   -9.53448  -16.30437
       H   -14.88997  -10.60271  -14.22806
       O   -14.77255  -11.10337  -15.05354
      H1   -15.69224  -11.30067  -15.40484
       H   -16.43625   -7.83103  -17.96649
       O   -17.18131   -7.30388  -17.70626
      H1   -17.95584   -7.67487  -18.09806
       H   -11.09800   -8.55924  -19.11564
       O   -10.13645   -8.24510  -19.09272
      H1    -9.64395   -9.05782  -18.94707
       H    -9.29095  -12.77443  -14.40065
       O    -9.98836  -12.74415  -15.07936
      H1    -9.52723  -12.63110  -15.92572
       H   -15.80102  -10.31799  -17.52261
       O   -15.11529   -9.69042  -17.26830
      H1   -14.86958   -9.88867  -16.34129
       H   -16.64072  -10.06388   -9.49159
       O   -16.56336  -10.45661  -10.36366
      H1   -16.19420   -9.91274  -11.01952
       H   -14.17288  -12.50339  -13.93280
       O   -13.51244  -13.16747  -13.59530
      H1   -12.95399  -12.67850  -12.97523
       H   -12.45320  -10.18904  -10.40524
       O   -12.98788   -9.38966  -10.55170
      H1   -13.35221   -9.21733   -9.69202
       H   -13.14916   -2.35277  -12.87520
       O   -12.33389   -2.01395  -13.31116
      H1   -12.58285   -1.28367  -13.88864
       H   -11.57700   -7.38766  -15.93830
       O   -11.61397   -6.48472  -15.59486
      H1   -11.02468   -5.92684  -16.15936
       H   -10.11811   -6.89284  -10.60280
       O    -9.81906   -7.16709  -11.50698
      H1   -10.57796   -7.70898  -11.76305
       H   -13.74666   -9.79198  -18.36488
       O   -12.90500   -9.56484  -18.80807
      H1   -12.54898  -10.46589  -18.99010
       H   -15.39625   -7.35390  -15.14077
       O   -15.87895   -7.73151  -14.38856
      H1   -16.68054   -8.10994  -14.81871
       H    -8.02648   -9.97020  -12.75503
       O    -8.39379   -9.44679  -13.45999
      H1    -8.17425   -8.51136  -13.33649
       H    -7.14846   -8.32073  -10.23792
       O    -7.30619   -7.68562   -9.55716
      H1    -6.44952   -7.52333   -9.14106
       H   -11.57089   -3.61097  -13.11244
       O   -11.07592   -4.40273  -12.80585
      H1   -11.46832   -5.12960  -13.33094
       H    -9.55176   -2.26458  -14.99806
       O    -9.35926   -3.23020  -14.92995
      H1    -9.82483   -3.53391  -14.14248
       H   -12.97606   -6.96159   -8.61153
       O   -13.03570   -7.21804   -7.65257
      H1   -12.08747   -7.55103   -7.42168
       H    -7.48239   -7.31475  -16.63547
       O    -8.32468   -7.45349  -16.21659
      H1    -8.86480   -6.73794  -16.62767
       H   -14.37745   -5.47813  -16.09962
       O   -14.26635   -6.40953  -16.16932
      H1   -13.32680   -6.55343  -15.99844
       H   -11.38631  -11.32357  -12.56137
       O   -11.82535  -11.77814  -11.77522
      H1   -11.44312  -12.66158  -11.44568
       H   -12.45817   -8.59959  -13.19207
       O   -12.31959   -7.62620  -13.24881
      H1   -11.90788   -7.53142  -14.10160
       H   -17.39962   -6.36059  -10.75052
       O   -16.65907   -6.36979  -10.16445
      H1   -15.83520   -6.23729  -10.65939
       H   -14.65602   -3.22884  -16.18941
       O   -13.89723   -3.65816  -15.70057
      H1   -13.52506   -3.12282  -14.95589
       H   -11.88998   -1.80221  -17.46928
       O   -12.81452   -1.82901  -17.22688
      H1   -13.03288   -2.67423  -16.76897
       H    -4.81548   -6.15136  -13.36030
       O    -4.95528   -6.88731  -12.72361
      H1    -5.92936   -7.01413  -12.74265
       H   -13.78855   -7.76286  -19.21712
       O   -14.10234   -7.05778  -19.78804
      H1   -14.23395   -6.32453  -19.18197
       H    -8.90924   -3.91387  -11.40872
       O    -8.10522   -3.60634  -11.87730
      H1    -7.83867   -4.38921  -12.43657
       H    -7.77763   -3.08201  -15.43443
       O    -6.92701   -2.81789  -15.89289
      H1    -6.30797   -2.28711  -15.31289
       H    -6.65768   -5.22283  -14.47548
       O    -7.29812   -5.57124  -13.81657
      H1    -8.08447   -5.88520  -14.29275
       H    -8.45137  -12.94996  -18.03767
       O    -9.12762  -12.45511  -17.62249
      H1    -8.92279  -11.53765  -17.79248
       H   -12.14539   -9.59231  -16.94922
       O   -11.84867   -9.14689  -16.14603
      H1   -11.37048   -9.74067  -15.61651
       H   -13.63704   -6.31276  -12.13280
       O   -14.25481   -5.91389  -11.50839
      H1   -13.74883   -5.49853  -10.83032

