129
frame 0 | Written by MDAnalysis XYZWriter (release 2.4.3)
       H    -1.65765   -0.78452   12.64407
       O    -2.39047   -0.77058   11.99468
      H1    -2.94201   -0.01047   12.15683
       H     3.23599   -2.90999   12.08350
       O     3.46461   -3.46203   12.86255
      H1     2.60153   -3.87455   13.10779
       H    -6.91983   -5.05466   16.97674
       O    -7.33896   -5.02270   17.86270
      H1    -6.61265   -5.19539   18.47009
       H    -1.21617    4.74224   15.00610
       O    -2.00581    4.58171   15.48630
      H1    -1.75986    4.04708   16.28167
       H    -0.41895   -1.13328   17.86286
       O     0.46306   -1.02273   18.21892
      H1     1.07288   -1.48657   17.60977
       H    -0.00035   -6.95881   14.16241
       O     0.49545   -6.20510   14.45421
      H1     1.38225   -6.50494   14.13010
       H     0.26249   -0.73342   13.96960
       O     0.40834    0.21791   13.85257
      H1     0.34435    0.43426   14.81782
       H     3.92051   -3.62836   16.06121
       O     4.64842   -3.23642   15.56056
      H1     4.22424   -3.31168   14.69187
       H     5.60784    1.78481   17.53411
       O     6.11697    2.46670   17.17204
      H1     6.95221    2.01030   17.11119
       H    -1.00676    2.32212   17.16499
       O    -1.00234    3.08200   17.84775
      H1    -1.68717    2.79278   18.51509
       H    -0.84714   -2.95568   13.07179
       O    -0.94879   -2.18532   13.70847
      H1    -1.77066   -2.38137   14.14303
       H    -4.12282   -9.00895   16.22878
       O    -3.86839   -9.17169   17.14931
      H1    -3.13397   -8.57193   17.24306
       H     3.29543    0.08551   15.20372
       O     2.75476   -0.04646   16.00127
      H1     3.22149    0.22276   16.78020
       H     1.30436    0.88404   16.23801
       O     0.34233    1.13291   16.31898
      H1     0.10089    0.46265   16.97911
       H     2.25760   -9.03341   19.55676
       O     2.16807   -8.16047   19.10821
      H1     2.99571   -7.74351   19.44469
       H    -7.61486   -1.69103   18.27825
       O    -7.58257   -1.33325   17.39296
      H1    -6.61996   -1.27670   17.24564
       H     4.23631    0.16819   18.63819
       O     3.99743    1.04460   18.27196
      H1     4.32110    1.67871   18.95651
       H    -3.71703   -1.36382   13.08549
       O    -4.34582   -1.81214   13.70212
      H1    -4.51794   -2.67401   13.27211
       H    -6.10350    2.31312   16.47186
       O    -5.21344    1.93578   16.64249
      H1    -4.67043    2.54297   17.22374
       H     4.24597   -5.04382   12.10664
       O     4.47311   -5.94204   11.82304
      H1     5.35318   -6.13401   12.19798
       H     3.29275   -7.02254   12.79735
       O     2.81953   -7.33179   13.59204
      H1     3.20418   -8.21599   13.69665
       H     5.12467   -8.55978   17.49195
       O     4.37726   -8.15353   17.04085
      H1     3.69515   -8.08162   17.69164
       H     1.23946    6.20602   17.99805
       O     2.09783    5.88648   17.69102
      H1     1.88943    4.95538   17.96505
       H    -1.74889   -5.67566   18.73732
       O    -2.63061   -5.51162   19.00951
      H1    -2.54067   -5.05080   19.83604
       H     0.93390    3.12370   18.32889
       O     1.78525    3.39721   18.62187
      H1     2.34479    2.69631   18.27028
       H     0.67946   -4.45229   11.57318
       O     0.65266   -4.15393   12.48790
      H1     0.61562   -4.93870   13.09777
       H    -1.52980   -6.77341   16.47845
       O    -1.61993   -7.74188   16.60905
      H1    -0.70252   -8.03061   16.50486
       H    -2.98160   -3.68997   16.19904
       O    -2.26814   -3.06732   16.02950
      H1    -2.30932   -2.33727   16.71900
       H    -1.16402   -4.18930   16.79865
       O    -0.48584   -4.78333   17.17314
      H1    -0.23928   -5.23514   16.34154
       H     0.59718   -4.22936   18.27321
       O     0.96839   -3.70720   19.03694
      H1     0.76735   -2.82698   18.70910
       H     1.54370    0.80871   12.41626
       O     2.23747    1.31020   11.96823
      H1     2.26750    0.88172   11.14571
       H     7.00227   -1.33912   16.73618
       O     6.08211   -1.09545   16.96032
      H1     5.59900   -1.51538   16.27288
       H     2.67583   -4.19324   17.90652
       O     3.54549   -4.57198   17.96833
      H1     4.12865   -3.91202   18.33474
       H    -4.71619   -1.32053   15.53519
       O    -4.84059   -0.78060   16.29403
      H1    -5.09707    0.08928   16.01106
       H    -5.03430   -8.01686   18.24520
       O    -5.22190   -7.18073   18.75720
      H1    -4.36191   -6.90891   19.08290
       H     5.00665   -6.64631   16.03615
       O     5.71240   -6.11200   15.66241
      H1     5.37906   -5.17022   15.63593
       H    -2.71193   -0.91930   18.43801
       O    -2.44409   -0.91048   17.46230
      H1    -3.28436   -0.74449   16.99612
       H     4.58052    1.46161   14.11782
       O     4.22554    0.63292   13.66334
      H1     3.46639    0.83807   13.07218
       H    -4.79632   -5.50712   15.90826
       O    -3.87336   -5.50809   16.22130
      H1    -3.88574   -5.51827   17.17522
       H     6.93960   -6.79444   16.94224
       O     7.74973   -7.08811   17.38432
      H1     7.41287   -7.73408   18.03378
       H     0.56446   -2.49939   14.62183
       O     1.25799   -2.87099   15.18966
      H1     1.99360   -2.25568   15.09998
       H     1.38770   -8.42453   16.35773
       O     1.01004   -9.24807   16.82597
      H1     1.16674   -8.97504   17.74894
       H     5.19873   -2.71804   19.42516
       O     5.74503   -3.25093   18.88020
      H1     5.99547   -2.60347   18.20220

