129
frame 10 | Written by MDAnalysis XYZWriter (release 2.4.3)
       H    18.86247   -9.44072   -8.08025
       O    17.92572   -9.63599   -8.10048
      H1    17.56733   -9.10937   -7.37602
       H     9.58342  -13.80155   -1.50107
       O     9.40409  -13.00438   -1.98965
      H1    10.12802  -12.85864   -2.59781
       H    13.22276   -9.31077    0.13429
       O    13.39435   -8.96921   -0.75782
      H1    12.84352   -9.51628   -1.41428
       H    11.40088   -9.01526  -11.07593
       O    11.66027   -8.40811  -10.32804
      H1    12.21536   -7.64469  -10.60692
       H    11.88274   -7.50718   -8.61063
       O    12.46570   -7.09446   -7.90301
      H1    13.07739   -7.74920   -7.62553
       H    17.32740   -9.70927    0.37655
       O    17.26393   -9.28789    1.26479
      H1    16.37022   -9.19158    1.55660
       H    18.09480   -5.99959   -3.66134
       O    18.85374   -6.48070   -3.31518
      H1    18.83894   -6.55555   -2.35479
       H     9.27849  -10.54662   -4.45652
       O     9.82639  -11.33175   -4.46272
      H1    10.30903  -11.19436   -5.28839
       H    15.98107  -12.71296   -2.79664
       O    15.81921  -11.80545   -2.86576
      H1    16.32833  -11.68303   -3.67936
       H    12.71539   -6.30654   -0.92815
       O    13.24928   -5.48264   -0.87349
      H1    13.73803   -5.56999   -0.07771
       H    13.16533  -12.58560   -0.96599
       O    12.70110  -13.00068   -1.73651
      H1    13.41256  -13.46270   -2.18945
       H    14.88612  -11.60231   -9.15831
       O    15.17049  -12.13954   -8.45210
      H1    16.04522  -12.45215   -8.55731
       H    14.89418   -8.64237   -1.47614
       O    15.73711   -8.48395   -1.99086
      H1    16.04510   -7.69910   -1.51129
       H    13.51164  -10.83442   -5.78256
       O    13.72395  -11.74941   -6.04181
      H1    14.38111  -11.73117   -6.73240
       H    13.00453   -9.67662  -10.10124
       O    13.66474  -10.41414  -10.09357
      H1    13.31694  -11.09889  -10.70061
       H    11.77291   -8.10457   -1.03294
       O    11.32535   -7.23568   -0.90998
      H1    11.13470   -7.00867   -1.82452
       H     8.66357   -5.53907   -4.52166
       O     9.08410   -6.30840   -4.83868
      H1     9.00373   -6.22839   -5.76968
       H     9.22321  -10.91999   -8.15836
       O     9.94167  -11.50107   -7.96402
      H1    10.16263  -11.98859   -8.76772
       H    15.18169  -15.31239   -2.93967
       O    14.43056  -14.77475   -2.72361
      H1    13.81030  -15.35064   -2.25374
       H    12.67925   -9.80782   -4.29336
       O    12.92117   -9.27222   -5.09374
      H1    13.84237   -8.97342   -4.85548
       H    15.52324   -9.54638   -8.06010
       O    15.15515   -8.83325   -7.48060
      H1    15.57441   -8.93495   -6.62636
       H    13.84017  -14.60131   -7.12402
       O    14.25692  -14.56044   -8.00619
      H1    14.50751  -13.60202   -8.19519
       H    17.02558   -4.30838   -3.23898
       O    16.75126   -4.80612   -4.00604
      H1    15.87794   -5.22061   -3.84847
       H    15.77622   -8.11583   -3.81906
       O    15.66296   -8.13637   -4.76810
      H1    15.18155   -7.29835   -5.01720
       H     9.39051   -8.06586   -7.16531
       O     8.99253   -7.21326   -7.48912
      H1     9.41222   -6.96539   -8.29951
       H    13.41512   -5.76972   -8.35055
       O    14.23864   -5.39867   -8.77577
      H1    14.25750   -4.42554   -8.66416
       H    13.37725  -13.45052   -5.58855
       O    13.16626  -14.37474   -5.58812
      H1    13.73265  -14.66311   -4.82044
       H    12.32102   -3.54149   -6.08394
       O    12.89576   -3.02655   -6.64383
      H1    12.65191   -2.06514   -6.55585
       H    16.10099   -8.65430  -11.52082
       O    15.99284   -8.07328  -10.74615
      H1    15.48764   -8.58352  -10.09797
       H    17.85407  -12.21074   -5.09825
       O    17.85277  -13.16107   -4.97449
      H1    18.62982  -13.47609   -4.50399
       H    14.06627   -5.70691   -2.74843
       O    14.11287   -5.56503   -3.74416
      H1    13.27842   -5.13586   -3.91341
       H    19.56445   -6.61472   -8.58121
       O    18.64977   -6.83704   -8.35205
      H1    18.60509   -7.74717   -8.60882
       H    14.70390   -2.69815   -5.61392
       O    15.55005   -2.71727   -5.10313
      H1    15.76881   -3.61194   -4.86342
       H    17.97081  -11.29624   -8.49373
       O    18.09401  -12.13386   -9.02834
      H1    18.67281  -11.85268   -9.77527
       H    16.95011   -9.81580   -4.72589
       O    17.65105  -10.47505   -4.95075
      H1    18.45060  -10.03139   -4.51152
       H    17.10184   -6.02026    0.43283
       O    16.60141   -6.81233    0.22143
      H1    17.08415   -7.50656    0.75766
       H    11.42498   -9.10588   -5.90408
       O    10.68308   -9.25693   -6.51796
      H1    10.80470  -10.16152   -6.84718
       H    11.29759   -3.79873   -3.78055
       O    11.55589   -4.58534   -4.32922
      H1    10.80632   -5.23848   -4.26400
       H     8.23493   -8.69392   -3.73696
       O     7.73377   -9.48191   -4.10023
      H1     7.16221   -9.85027   -3.39412
       H    12.39451  -11.36809   -2.61305
       O    11.96908  -10.52822   -2.86088
      H1    11.11516  -10.68948   -3.28056
       H    17.23951  -10.71166   -1.78210
       O    17.92877  -10.76538   -1.10949
      H1    18.09891  -11.67726   -1.00154
       H    17.12016   -6.22814   -7.38220
       O    16.29164   -5.80786   -7.13145
      H1    15.68277   -5.98823   -7.85753
       H    11.52841   -7.93992   -4.24861
       O    10.90151   -7.73193   -3.56118
      H1    10.24734   -7.26532   -4.05549

