129
frame 6 | Written by MDAnalysis XYZWriter (release 2.4.3)
       H    17.95361   15.23725    2.17351
       O    17.41682   15.62868    1.51463
      H1    16.96350   14.93601    0.99270
       H    15.76695    9.02384   -6.70408
       O    14.99072    9.53309   -6.35152
      H1    14.68171    9.06277   -5.52970
       H    16.20783   12.27317    4.17347
       O    16.48408   12.63832    3.32494
      H1    16.71230   11.88457    2.81615
       H    17.06875   15.04224   -4.42627
       O    16.30429   15.56046   -4.69255
      H1    15.86617   14.92717   -5.26179
       H    17.82185   15.70237   -7.41261
       O    17.47775   16.54660   -7.14730
      H1    17.07236   16.49031   -6.30110
       H    17.77475   16.80527  -13.27064
       O    18.25288   16.97626  -12.42227
      H1    18.65109   16.12801  -12.13896
       H    14.36139   16.38394    2.69728
       O    14.66118   15.52695    2.31398
      H1    15.61831   15.58748    2.37019
       H    13.38536   12.81420   -4.69587
       O    13.72251   13.72754   -4.70526
      H1    12.91484   14.10579   -4.29082
       H    15.99922   12.46968  -12.04220
       O    16.93925   12.21270  -12.11876
      H1    17.36065   12.58846  -11.30874
       H    15.93343   14.62622   -8.92430
       O    16.35904   13.88226   -8.46160
      H1    16.93348   13.54199   -9.16019
       H    17.46961   11.22975   -2.69401
       O    16.92189   10.67181   -3.33362
      H1    15.97141   10.71700   -3.12368
       H    15.79634   13.11879    1.53350
       O    16.25199   13.29012    0.69144
      H1    15.49439   13.13498    0.04335
       H    14.08729   18.41109   -0.38390
       O    14.84902   18.62882   -0.95856
      H1    14.86288   18.02049   -1.64083
       H    18.88929   10.57164   -7.55637
       O    19.27450   10.29131   -8.42713
      H1    18.44827   10.17708   -8.96214
       H    18.41336   15.99158    0.08152
       O    18.90544   16.39877   -0.64733
      H1    18.60019   17.32197   -0.57716
       H    11.60065   18.38611   -2.38380
       O    11.99227   19.19812   -2.76510
      H1    12.86193   19.19698   -2.35440
       H    18.69561    9.68690    1.53438
       O    18.74223    9.66421    2.48430
      H1    19.32092    8.94491    2.72235
       H    17.75405   11.59771   -5.69986
       O    17.54592   10.90348   -6.30847
      H1    16.59727   10.76004   -6.16727
       H    19.00577   10.87967   -0.49742
       O    19.02045    9.94678   -0.31979
      H1    18.35811    9.55143   -1.01335
       H    17.67123   19.39811   -9.53545
       O    18.09944   19.33937   -8.70414
      H1    18.18239   18.41832   -8.57387
       H    13.04666   12.30646   -7.79874
       O    12.59184   11.40891   -7.77604
      H1    11.66163   11.67495   -7.69829
       H    13.27709   15.81650    0.83087
       O    12.34731   16.11597    0.64979
      H1    12.30226   17.06425    0.74496
       H    12.26430   15.13938   -0.92557
       O    12.36699   14.34713   -1.49508
      H1    11.63124   14.45935   -2.07945
       H    18.64403   11.85222   -9.67523
       O    18.42141   12.76653   -9.94350
      H1    19.25493   13.26184  -10.19753
       H    17.79935   17.46371    3.16533
       O    17.47447   18.14707    3.72347
      H1    16.51229   18.18376    3.40458
       H    18.20397   13.28590   -1.93923
       O    17.95999   12.52995   -1.44212
      H1    17.45624   12.65427   -0.61647
       H    17.03563    5.31656   -2.34166
       O    17.52913    5.96752   -1.85167
      H1    17.55389    6.80018   -2.39766
       H    14.47826   16.74674   -9.29710
       O    15.22979   16.15507   -9.24445
      H1    15.82291   16.54230   -8.60535
       H    16.31358    9.99888   -9.81697
       O    17.11386   10.12460  -10.33486
      H1    16.90931   10.72061  -11.01839
       H    14.04130   13.99010   -6.58572
       O    13.70358   13.90240   -7.48413
      H1    14.54409   13.84204   -7.99999
       H    16.94130    6.65007   -7.35000
       O    16.77544    7.60162   -7.29435
      H1    17.39333    7.98458   -7.93913
       H    12.62199   10.92366   -5.83878
       O    12.72242   11.08370   -4.92738
      H1    11.98016   10.78898   -4.43797
       H    13.55000   19.45612   -5.94972
       O    14.14900   18.78571   -5.65161
      H1    13.90559   17.93235   -6.07302
       H    17.82328    9.24882   -3.14141
       O    18.28624    8.37392   -2.98737
      H1    18.08902    7.83201   -3.71780
       H    18.49177   14.69185    5.01051
       O    18.34813   14.56177    4.09842
      H1    17.70444   13.81192    4.12869
       H    13.32804   10.49511   -2.62956
       O    14.26706   10.24031   -2.50523
      H1    14.14938    9.52202   -1.81758
       H    15.32961    7.56930   -4.22027
       O    14.41618    7.99320   -4.31609
      H1    14.30323    8.70384   -3.70870
       H    13.63482   12.93869   -1.47036
       O    14.21957   12.32685   -0.97328
      H1    14.37424   11.48092   -1.52382
       H    16.83412   18.85600   -0.70959
       O    17.75140   19.13194   -0.79447
      H1    17.93827   19.27896   -1.72210
       H    17.63283   18.64535   -3.89369
       O    18.57706   18.88918   -3.87656
      H1    18.62770   19.32877   -4.74695
       H    15.22508   18.40747   -4.11746
       O    15.85523   18.01029   -3.50704
      H1    15.90337   17.11020   -3.88535
       H    19.51099   13.43049   -4.17313
       O    18.96680   14.13488   -3.89560
      H1    19.55393   14.90936   -3.88353
       H    13.27596   15.39037   -7.06521
       O    13.13566   16.30592   -6.76077
      H1    12.47750   16.22787   -6.05190

