129
frame 6 | Written by MDAnalysis XYZWriter (release 2.4.3)
       H    -6.56949   -7.31074   10.15191
       O    -7.46536   -7.49959    9.79371
      H1    -7.47304   -8.46932    9.76811
       H     1.23630  -13.27995    8.17437
       O     1.65296  -12.71386    8.83270
      H1     2.02844  -11.99108    8.39762
       H    -1.30595   -6.10928    6.24899
       O    -0.48188   -6.66308    6.33345
      H1    -0.90411   -7.51696    6.39822
       H     0.43301  -12.07569   11.97561
       O     0.92579  -12.77457   11.56374
      H1     0.91308  -12.63435   10.59471
       H     1.78812   -7.23686   13.72348
       O     2.09294   -6.73382   14.45197
      H1     3.02206   -6.55369   14.22725
       H    -4.37610   -4.89179   12.74889
       O    -4.68567   -4.50487   11.90742
      H1    -4.49772   -5.26964   11.34095
       H     0.13519   -8.80678   12.44851
       O     0.54401   -7.98052   12.42313
      H1     0.13575   -7.41859   11.75851
       H    -3.95191  -10.73956    5.54625
       O    -3.56120   -9.94234    5.12911
      H1    -3.36673  -10.06635    4.18838
       H    -1.56544   -6.66574    9.50177
       O    -1.17878   -7.26228   10.23436
      H1    -1.60706   -6.81781   11.04520
       H    -2.26226   -9.35146   12.10893
       O    -1.41832   -9.70353   11.69063
      H1    -1.18829   -9.37189   10.81418
       H    -2.92193  -10.95463   14.27760
       O    -2.71949  -11.12292   15.22037
      H1    -1.94576  -11.70774   15.16321
       H    -3.52853  -14.13888   10.27743
       O    -2.75092  -13.63258   10.17657
      H1    -1.85988  -14.13867   10.20650
       H    -4.39028   -7.41684   11.27491
       O    -4.86894   -6.88951   10.65862
      H1    -4.53136   -7.12000    9.77365
       H     0.37183  -10.89191   17.21706
       O     0.21558  -10.52024   16.29451
      H1    -0.37668   -9.82838   16.57967
       H    -3.84353  -11.31521   11.73536
       O    -3.28760  -11.81023   12.37176
      H1    -3.08256  -12.68416   11.97033
       H    -2.06679   -4.88850   11.13597
       O    -1.72335   -5.17901   12.04506
      H1    -2.38024   -4.89862   12.64682
       H    -1.50281   -6.33608   15.60017
       O    -0.78782   -6.87562   15.84186
      H1    -0.04177   -6.79648   15.23988
       H     3.74484   -9.96010   14.58015
       O     4.27171   -9.50220   13.89661
      H1     3.96825   -9.77576   13.02745
       H     0.84810   -9.57291    9.32126
       O     0.08759  -10.09030    9.02542
      H1     0.39359  -11.02604    9.08507
       H    -0.84193  -10.53104   13.08581
       O    -0.30031  -11.24372   13.43409
      H1     0.01134  -10.92348   14.29096
       H    -5.25354  -11.04546   13.61561
       O    -5.52401  -10.14721   13.74051
      H1    -5.83718  -10.10115   14.61705
       H    -2.28881   -9.80724    6.56395
       O    -1.68592   -9.23086    7.02185
      H1    -1.24072   -9.73170    7.69159
       H     3.02569   -5.42709   10.36830
       O     2.08945   -5.64688   10.26968
      H1     1.76342   -5.00795   10.90211
       H    -1.54017  -13.26225   13.56109
       O    -1.93409  -14.15979   13.61235
      H1    -1.85558  -14.60515   12.75646
       H     4.97304   -8.14470    8.28631
       O     4.32142   -8.75036    8.69256
      H1     3.59131   -8.29909    9.21840
       H     2.16747   -8.83448   10.63289
       O     2.00665   -8.36718    9.81252
      H1     1.72797   -7.43385   10.02695
       H    -3.17470   -8.50525    7.82448
       O    -3.98990   -8.22779    8.24542
      H1    -4.64227   -8.12555    7.52264
       H    -2.04360   -4.22247    9.04194
       O    -2.29958   -5.04346    9.52882
      H1    -3.28966   -5.09195    9.47773
       H     3.95057  -10.43383   11.04003
       O     3.15662  -10.31285   11.52941
      H1     3.00871  -11.29203   11.72708
       H    -0.71686  -10.14750    5.98734
       O    -0.04372  -10.73442    5.61645
      H1     0.63447  -10.67651    6.31313
       H    -4.38064   -8.80206   13.09368
       O    -3.73200   -8.20173   12.73242
      H1    -3.55997   -7.52131   13.38323
       H     3.36796  -11.42246    7.18247
       O     2.63919  -10.78537    7.31942
      H1     3.03518  -10.00200    7.64683
       H     1.08540   -4.15500   13.44056
       O     0.85108   -4.33784   14.38092
      H1     1.15181   -5.27919   14.47870
       H    -3.23027   -4.34639    5.86440
       O    -2.69942   -5.00491    6.30991
      H1    -3.28639   -5.31721    7.03114
       H    -0.19504   -4.17999   11.82768
       O     0.65713   -3.60439   11.75575
      H1     0.25688   -2.81967   11.37234
       H     1.37865   -5.34520    7.15093
       O     1.38255   -4.62501    7.71602
      H1     1.78079   -4.98495    8.51227
       H    -4.15612  -11.44388    8.13811
       O    -4.37444  -11.67218    7.18346
      H1    -4.00810  -12.53395    6.94529
       H    -6.56029  -13.76426    8.05952
       O    -6.56062  -12.82944    8.23813
      H1    -5.79686  -12.47452    7.75266
       H    -3.25007  -10.57450    9.95516
       O    -4.10157  -10.62340    9.61329
      H1    -4.13277   -9.70876    9.21569
       H     2.64622  -13.00346   12.00772
       O     3.62568  -13.06221   11.95544
      H1     3.86240  -13.42598   11.09448
       H    -4.82489   -6.18759   14.11692
       O    -3.93574   -5.83907   14.03914
      H1    -3.73692   -5.50090   14.91441
       H     2.40776   -8.16444   15.95457
       O     2.76629   -8.19986   16.82720
      H1     3.43003   -7.53008   16.93072
       H     1.13976  -15.52333    9.96591
       O     0.31040  -15.18957   10.39571
      H1     0.62329  -14.40309   10.89062

