129
frame 3 | Written by MDAnalysis XYZWriter (release 2.4.3)
       H   -18.64789    1.32723   10.31855
       O   -19.60509    1.33342   10.34318
      H1   -19.88221    1.73928   11.20719
       H   -18.12477    6.19865    9.45932
       O   -17.87626    6.30830   10.35394
      H1   -18.59037    6.64577   10.93255
       H   -10.92461    5.51932   12.47656
       O   -11.83727    5.76561   12.68073
      H1   -11.88343    6.75770   12.66689
       H   -16.50393    5.43831    7.36425
       O   -15.61277    5.02806    7.31202
      H1   -15.40721    4.85962    8.23905
       H   -13.20816    0.39275    3.81793
       O   -14.08258    0.74054    3.59543
      H1   -14.47115    0.94288    4.44750
       H    -9.75778    7.78205    7.33829
       O    -8.80756    7.57076    7.34471
      H1    -8.76165    6.93351    8.02209
       H   -13.74752    3.90196   11.98823
       O   -13.56299    2.94962   12.10652
      H1   -13.10474    2.78196   12.96123
       H   -16.65535    3.10990    7.87981
       O   -17.38201    2.76683    8.43332
      H1   -18.21040    3.23926    8.16292
       H   -14.14482    9.75771    6.93183
       O   -13.73136   10.08860    7.72167
      H1   -12.79576    9.96236    7.51456
       H   -11.16815    8.00969   10.55023
       O   -11.49959    7.59950    9.70292
      H1   -12.46836    7.78471    9.76024
       H   -16.51784    4.93857   10.33876
       O   -15.87802    4.28210   10.06227
      H1   -16.32397    3.58943    9.60168
       H   -14.81499    5.26934   14.16832
       O   -14.55889    5.78629   13.39503
      H1   -13.55975    5.69356   13.39769
       H   -14.83396    7.48687    9.26808
       O   -14.14034    7.98386    9.72713
      H1   -14.09903    8.79635    9.22245
       H   -18.95481    5.23719   14.77175
       O   -18.00443    5.22038   14.66646
      H1   -17.93932    4.32973   14.30554
       H   -17.31822   10.30144    8.49317
       O   -17.66405    9.69590    7.84150
      H1   -17.36442   10.07284    6.99034
       H   -19.29748    1.04749    4.42562
       O   -18.70241    1.26575    3.64285
      H1   -18.29538    2.14395    3.84635
       H   -10.69272    4.76485    5.88309
       O   -10.07976    4.52566    6.56307
      H1   -10.43295    5.04275    7.29180
       H   -18.39059    1.91312   14.68723
       O   -18.04214    2.53152   14.08819
      H1   -17.38406    2.16112   13.50608
       H   -16.46410    2.27089    4.86186
       O   -16.09025    1.69241    5.55233
      H1   -16.86757    1.36069    5.97733
       H   -11.81128    8.08375    7.44170
       O   -11.25189    8.64793    6.89236
      H1   -11.82677    8.81068    6.15718
       H   -17.54223    6.91797   13.70139
       O   -17.44509    7.88109   13.82337
      H1   -16.65316    8.12794   13.34987
       H   -15.19633    2.24294   12.49037
       O   -16.09512    1.82228   12.45818
      H1   -16.15986    1.39292   11.51329
       H   -16.80386    1.10334    9.28244
       O   -16.57475    0.39468    9.92767
      H1   -15.96375   -0.33172    9.62332
       H   -13.39332   10.40733   11.50504
       O   -13.73441   10.65194   10.65680
      H1   -14.60050   10.25662   10.62195
       H   -12.94110    1.81562   11.04236
       O   -12.35602    1.30042   10.40343
      H1   -12.90159    0.51729   10.13196
       H   -11.54165    6.27775    5.76495
       O   -11.77679    5.95382    4.85328
      H1   -12.54510    5.38351    4.99981
       H   -18.75905    7.62693    2.13357
       O   -18.70267    7.92910    3.04917
      H1   -17.91051    7.52002    3.38014
       H   -13.03410    7.00573    3.17423
       O   -13.55149    7.34184    2.49540
      H1   -13.05637    7.14276    1.69479
       H   -14.79521    8.50270   11.79229
       O   -14.96394    8.54179   12.75462
      H1   -14.72600    7.66938   13.07042
       H   -10.50601    2.58699    7.29113
       O   -10.66621    1.73221    7.62251
      H1   -10.98816    1.83976    8.52563
       H   -12.28193   -0.76535    8.15005
       O   -12.83730   -0.02819    7.81382
      H1   -12.15464    0.61425    7.59837
       H   -11.44577    5.39336    9.72970
       O   -11.10958    4.63386    9.26674
      H1   -11.35770    3.95964    9.94305
       H   -19.25323   -1.38126    7.44389
       O   -18.58871   -0.72037    7.31936
      H1   -18.19390   -0.88321    6.41889
       H   -17.60515    4.10823    3.32742
       O   -16.87355    3.51738    3.68072
      H1   -16.46567    3.12514    2.86669
       H   -17.91414    7.17847    7.53059
       O   -18.20473    6.28417    7.67270
      H1   -19.03827    6.29459    7.27416
       H   -13.40749    3.25212    4.47949
       O   -13.55154    3.89822    5.20037
      H1   -14.51579    3.88086    5.26877
       H   -15.21402    6.63869    2.45749
       O   -16.05502    6.30799    2.79461
      H1   -16.36143    5.63501    2.17037
       H   -15.63537    6.17416    6.03577
       O   -15.98033    6.85779    5.45099
      H1   -15.92621    6.54947    4.49704
       H   -14.42103    8.57592    5.17550
       O   -13.49300    8.85343    5.25613
      H1   -13.17245    9.20540    4.38954
       H   -15.66387   -1.23474    5.71832
       O   -14.87232   -1.57837    6.19158
      H1   -14.34312   -0.86350    6.52753
       H   -19.29284    9.25906    8.74560
       O   -19.93269    9.01589    9.38061
      H1   -19.66922    8.20315    9.81941
       H   -13.86955    5.77230    7.34587
       O   -12.96883    6.05229    7.44195
      H1   -12.48654    5.46544    8.02466
       H   -16.87419   11.22640   10.55559
       O   -16.37620   10.95287    9.77181
      H1   -15.90906   11.76541    9.42144

