129
frame 8 | Written by MDAnalysis XYZWriter (release 2.4.3)
       H     8.17651  -12.08781    6.24679
       O     8.68570  -12.83964    6.64027
      H1     8.19765  -13.15562    7.39398
       H     5.12552   -8.55377    2.95691
       O     5.15763   -7.97335    2.15340
      H1     4.27923   -7.88903    1.72470
       H     0.74186   -8.23497    1.24768
       O     0.71215   -7.94625    0.34987
      H1     1.61591   -7.69871    0.11742
       H     9.40263  -12.97957   -1.17745
       O     8.54819  -12.65869   -1.50343
      H1     8.69539  -12.06023   -2.21830
       H     8.56339   -9.00886    7.12764
       O     8.28160   -8.54571    6.37420
      H1     8.92422   -7.90157    6.23093
       H     1.41457   -7.72230   -3.82245
       O     2.03049   -7.10620   -3.45202
      H1     2.94211   -7.47627   -3.57494
       H     4.25029   -8.16740    5.57137
       O     3.90928   -7.42181    6.13375
      H1     4.41907   -6.63625    5.72832
       H     1.56443  -13.94155    1.64054
       O     1.89156  -14.50451    2.32206
      H1     2.85205  -14.37105    2.25792
       H     2.39285   -6.42400    3.42965
       O     1.85256   -7.23628    3.47253
      H1     1.97875   -7.63829    4.33069
       H     8.28131   -9.94375   -2.90660
       O     8.90218  -10.58041   -3.31310
      H1     9.61669   -9.99393   -3.70824
       H     6.16721   -6.36588    1.66973
       O     6.79827   -5.85941    1.15979
      H1     6.76947   -5.01783    1.56358
       H     4.49695  -10.95487    1.48721
       O     5.26565  -10.62958    1.00166
      H1     5.30724   -9.67766    1.27242
       H     2.81429  -11.87558    3.23469
       O     2.99085  -11.25295    2.50155
      H1     2.09532  -10.75479    2.33202
       H     8.35703  -13.08991    2.86414
       O     7.92871  -13.92270    2.69211
      H1     8.61343  -14.57623    2.82283
       H     2.61070   -4.48381   -1.37624
       O     3.01778   -5.23411   -1.78861
      H1     2.39209   -5.71353   -2.33735
       H     5.03314   -4.63835    5.96025
       O     5.33372   -5.11119    5.18906
      H1     4.69285   -4.96042    4.45838
       H     3.92503   -4.33608    2.17183
       O     3.59825   -4.63598    3.02010
      H1     2.91772   -4.00825    3.26896
       H     1.27708  -14.83206   -1.87247
       O     1.79645  -14.12077   -1.48479
      H1     1.80997  -13.32921   -2.05844
       H     9.36820   -9.83058    0.48271
       O     9.40409  -10.79991    0.52041
      H1     8.73161  -11.08018   -0.02968
       H     4.42899  -15.18316    1.60256
       O     4.72823  -14.47568    2.18060
      H1     5.29567  -14.05207    1.53827
       H    10.61744   -6.97687    3.73484
       O     9.79452   -6.74146    3.24873
      H1     9.95189   -7.20198    2.38694
       H     7.39191  -14.46247    0.18735
       O     6.48147  -14.04155   -0.02217
      H1     6.65805  -13.21874   -0.51057
       H     7.51811   -9.99854    5.51711
       O     7.13539  -10.82355    5.18573
      H1     7.72622  -11.31241    4.63053
       H     9.26925  -11.13793    2.45041
       O     9.04478  -11.47701    3.28372
      H1     9.94504  -11.64209    3.52713
       H     5.10433  -12.13012    6.48536
       O     4.22567  -12.36564    6.88940
      H1     4.45989  -12.58036    7.83658
       H     7.06156   -4.99882    4.93685
       O     7.99767   -4.91172    4.95135
      H1     8.25669   -5.71417    4.43599
       H     0.40606   -9.49492   -2.29390
       O     0.36547   -9.93557   -1.44370
      H1     0.66109   -9.21399   -0.82720
       H     4.94027   -4.99047   -2.46983
       O     5.83697   -4.69602   -2.70911
      H1     6.14490   -5.03829   -3.56385
       H     3.40430  -14.37039   -1.29688
       O     4.30827  -14.72538   -1.42896
      H1     4.97511  -14.38203   -0.76851
       H     0.03105   -8.61157    5.90403
       O     0.68564   -9.20717    5.53633
      H1     0.92384   -9.79416    6.25172
       H     4.58467  -15.01853    5.44432
       O     4.07788  -15.37090    4.68507
      H1     4.66379  -15.05581    3.95946
       H     4.30279  -10.28960    3.84001
       O     4.75675   -9.52950    4.22721
      H1     5.55894  -10.02031    4.56307
       H     3.63670   -8.05983   -0.39391
       O     3.30655   -7.28121    0.07920
      H1     3.35348   -6.56137   -0.59295
       H     0.26799   -9.89499    3.54054
       O     0.47907  -10.26593    2.72283
      H1    -0.35212  -10.57248    2.32813
       H     2.84319  -12.42383    5.61488
       O     2.40928  -12.80102    4.85055
      H1     2.81796  -13.69508    4.69634
       H     3.87785   -3.22515   -0.03376
       O     4.49874   -3.60224    0.61104
      H1     5.09749   -4.24808    0.19997
       H     9.03339   -7.47966   -0.18394
       O     8.84395   -7.77154    0.70287
      H1     8.04342   -7.33503    1.01127
       H     1.83015  -11.30571   -2.65503
       O     2.64561  -11.70443   -2.36487
      H1     2.88602  -12.25812   -3.13789
       H    10.74835  -12.21148    0.20247
       O    11.02946  -13.11071   -0.01182
      H1    11.93242  -13.05961   -0.40431
       H    -0.70654   -5.45328    3.11740
       O    -0.47602   -6.00734    2.39299
      H1     0.36278   -6.44367    2.65063
       H     6.39720  -10.78946   -6.23842
       O     5.74608  -10.35078   -5.58531
      H1     6.11634  -10.32363   -4.68302
       H     6.19258   -8.42125   -3.22937
       O     6.34868   -9.27287   -2.86479
      H1     5.50828   -9.33359   -2.38208
       H     4.64214  -10.17331   -0.51087
       O     4.18951   -9.51621   -1.14589
      H1     3.53842  -10.03897   -1.62028

