129
frame 11 | Written by MDAnalysis XYZWriter (release 2.4.3)
       H     8.90259   16.19275    3.17157
       O     8.64604   16.67722    4.00182
      H1     7.67608   16.62328    4.04831
       H     2.73045   16.78783   -3.33783
       O     3.32565   16.25683   -3.90919
      H1     2.88173   15.42318   -4.04365
       H     2.57494   18.19137   -2.02936
       O     1.86867   17.58594   -2.03875
      H1     1.07346   18.12037   -2.12686
       H     7.13949   10.35454   -2.32348
       O     6.34915    9.80681   -2.13788
      H1     5.77141    9.80954   -2.92242
       H    14.90401   11.42887   -2.98198
       O    14.65077   12.31663   -3.23268
      H1    13.72813   12.21652   -3.60624
       H    10.27380   13.40193   -6.78471
       O    10.72360   14.22941   -6.93092
      H1    11.02508   14.67341   -6.14154
       H     7.68950   14.50140   -5.06877
       O     8.34983   14.38383   -4.37317
      H1     7.82269   14.06260   -3.61782
       H    14.33491   17.74344   -0.82246
       O    15.18310   18.03192   -1.28183
      H1    15.12730   17.70467   -2.24012
       H     5.73663   12.95701   -1.62085
       O     5.08779   12.25287   -1.34379
      H1     5.50739   11.41408   -1.66471
       H    10.34913   11.72806   -4.47378
       O     9.42708   11.83119   -4.56723
      H1     9.24226   12.81481   -4.45954
       H     7.68164   19.79632   -4.21825
       O     7.28783   19.25808   -3.53445
      H1     6.97501   19.76910   -2.82170
       H    11.10256   18.42740   -3.91619
       O    11.10530   18.21042   -4.88455
      H1    11.76483   18.88838   -5.20929
       H     5.65284   16.21099   -8.88564
       O     6.02799   16.27434   -9.78733
      H1     6.70909   15.59939  -10.06404
       H     4.68372   14.62098    2.12076
       O     5.54580   14.88903    1.72082
      H1     5.90152   15.51047    2.39822
       H    12.04831   12.08609   -3.27445
       O    12.06315   11.71578   -4.17725
      H1    12.07529   10.73308   -4.06140
       H     4.21289   16.71430   -7.38035
       O     5.07022   16.45664   -7.18412
      H1     5.52951   17.28581   -6.93994
       H     9.93652   15.21748   -0.12249
       O    10.24078   14.82414   -0.96291
      H1     9.88153   13.94803   -0.83175
       H     6.72083   19.05170   -0.37290
       O     5.86593   18.97329   -0.86776
      H1     5.85437   18.07541   -1.12973
       H    14.01025   13.40457   -7.01760
       O    13.33863   12.71880   -7.04709
      H1    12.55040   13.24623   -7.24120
       H    10.27597   16.39852   -9.11491
       O     9.30695   16.18626   -9.23600
      H1     8.88784   16.65556   -8.47083
       H     4.86481   11.89753   -3.61238
       O     5.14227   11.23771   -4.24114
      H1     4.28552   10.77738   -4.44512
       H    12.67943   15.84305    2.38060
       O    12.27865   15.54129    1.54230
      H1    12.22631   16.38557    1.05823
       H     5.87372   14.94284   -6.44505
       O     6.42592   14.17363   -6.09235
      H1     5.72655   13.46889   -5.98567
       H    12.82494   14.17080    0.49558
       O    13.17921   13.25426    0.25432
      H1    13.20404   13.15055   -0.71112
       H     8.51220   16.39048   -3.06952
       O     8.16102   16.84222   -2.28666
      H1     7.85660   17.72813   -2.73238
       H    10.83614   16.66987   -2.23023
       O    10.73877   17.62944   -2.28254
      H1     9.77499   17.60972   -2.34174
       H    11.88685   14.49810   -3.51391
       O    12.31722   14.16339   -2.65553
      H1    11.59724   14.32711   -2.04746
       H     8.94575   11.40501   -3.01892
       O     8.52999   11.47620   -2.09983
      H1     9.27335   11.29127   -1.51768
       H     4.11660   18.07796   -3.86514
       O     4.11426   18.99092   -3.49905
      H1     5.06931   19.02625   -3.39141
       H    11.64864   18.30466   -0.00052
       O    12.56715   18.10887    0.32324
      H1    12.51963   18.27552    1.26680
       H     9.97806   15.21023   -4.80479
       O    10.90100   15.43933   -4.65351
      H1    11.09920   16.40981   -4.82654
       H     4.54861   15.55632   -0.82365
       O     4.98906   16.07627   -1.48204
      H1     4.51797   16.00115   -2.30069
       H     8.43387   17.92700    0.15790
       O     8.51761   18.88081    0.11186
      H1     8.60940   19.11456    1.03398
       H    13.32889   18.94883   -5.88356
       O    13.99896   18.22033   -5.85474
      H1    13.55722   17.44571   -6.24859
       H     6.44915   19.33966   -7.55885
       O     6.47449   18.78222   -6.74772
      H1     6.13005   19.32678   -6.02843
       H     9.49670   18.45780   -6.23537
       O     9.12221   18.25823   -7.10077
      H1     8.28502   18.69956   -7.11821
       H     8.07756   13.17152   -6.76491
       O     8.51304   12.31494   -7.09670
      H1     8.54568   11.75618   -6.30349
       H    11.35023   12.66618    0.61954
       O    10.51949   12.14706    0.51842
      H1    10.82370   11.30616    0.83864
       H     6.59656   12.22256    1.44985
       O     5.91760   11.58360    1.30784
      H1     5.68189   11.73317    0.37569
       H     7.19731   14.96874   -1.58203
       O     7.15781   14.13229   -2.03657
      H1     7.65075   13.56155   -1.42329
       H    10.28780   15.30123    2.01160
       O     9.38735   15.65221    1.67695
      H1     8.80280   14.82227    1.79772
       H     8.13513   13.03259    2.68214
       O     8.20419   13.17088    1.72866
      H1     8.93484   12.66829    1.40803
       H    12.07697   16.27976   -7.22095
       O    11.77157   17.16319   -7.51307
      H1    10.84570   17.03830   -7.28658

