129
frame 10 | Written by MDAnalysis XYZWriter (release 2.4.3)
       H    -3.06655   -3.18739   11.93523
       O    -3.50828   -2.47742   12.37514
      H1    -2.84299   -1.83057   12.70601
       H   -12.82180   -2.99560   16.06228
       O   -11.94090   -2.95863   15.69610
      H1   -11.89486   -3.40467   14.86437
       H   -10.42837   -5.04021   18.78955
       O   -11.10421   -5.43415   19.38035
      H1   -10.58266   -6.28391   19.65065
       H   -10.20287   -8.23842   17.48413
       O   -10.73194   -8.85570   16.93713
      H1   -10.37432   -8.76414   15.99423
       H    -8.45741  -10.60800   11.48365
       O    -8.02485  -10.43114   12.28694
      H1    -7.08682  -10.53794   12.06562
       H   -11.18531   -8.92632   11.39509
       O   -11.33347   -9.91144   11.47024
      H1   -12.20623  -10.00956   11.05978
       H    -3.60962   -5.85564   12.20990
       O    -3.33700   -5.28283   11.45225
      H1    -4.13223   -5.08256   10.95829
       H    -7.77454  -11.59687   13.50885
       O    -7.68283  -12.19449   14.35030
      H1    -8.57444  -12.22271   14.69617
       H    -7.41531   -4.56377   11.24566
       O    -7.03527   -4.85165   12.08279
      H1    -6.44615   -4.21023   12.56040
       H    -7.66852   -3.16156    8.69473
       O    -7.35671   -3.49673    9.51313
      H1    -6.76242   -4.19128    9.15988
       H    -2.95866   -8.35883   10.71148
       O    -2.22780   -7.67862   10.45620
      H1    -2.49984   -6.77325   10.76959
       H    -1.33533   -8.81739   12.98919
       O    -0.91921   -7.97107   12.80310
      H1    -1.22151   -7.75382   11.92213
       H    -7.15834   -7.29124   15.06112
       O    -6.83237   -6.38203   15.05358
      H1    -7.62664   -5.90333   14.68883
       H    -1.43367  -10.85175   13.23024
       O    -1.74712  -10.20521   13.91792
      H1    -1.10567  -10.08240   14.60973
       H    -4.00740  -10.97160   15.39404
       O    -4.20785  -10.24398   14.79035
      H1    -3.35165  -10.17037   14.32521
       H    -0.66243   -6.87619   17.56661
       O    -1.19394   -7.65524   17.63071
      H1    -1.90571   -7.58124   17.01297
       H    -5.79228   -8.15707   10.29869
       O    -6.11405   -7.79863    9.46758
      H1    -5.72100   -8.46503    8.84154
       H    -5.65441   -7.94955   17.80913
       O    -5.59085   -8.88426   17.97671
      H1    -5.87745   -9.33829   17.11191
       H    -1.98160   -3.37598   15.36769
       O    -2.67181   -3.88807   15.72408
      H1    -2.57495   -4.65859   15.13879
       H   -11.09074   -6.63135   10.01234
       O   -11.24111   -7.18058   10.78423
      H1   -11.21003   -6.64854   11.59444
       H    -4.83004  -12.00229   11.46974
       O    -5.15476  -11.26731   12.04846
      H1    -4.83043  -11.58864   12.85657
       H   -10.76510  -11.37052   14.81190
       O   -10.18189  -11.95416   15.32386
      H1   -10.20419  -11.63907   16.26903
       H    -8.71474   -1.36951   18.31917
       O    -8.95942   -1.28973   17.39270
      H1    -8.34403   -0.54619   17.19232
       H    -2.50866   -8.66572   18.75952
       O    -3.11357   -9.40160   19.02302
      H1    -3.94403   -9.06443   18.70257
       H    -5.12564   -2.82746   13.31497
       O    -5.78862   -3.36090   13.79177
      H1    -6.48852   -2.79193   14.06261
       H    -8.32202   -5.17552   13.12036
       O    -8.99640   -5.48889   13.65665
      H1    -9.70135   -4.81557   13.80120
       H    -6.18278   -9.41423   14.71356
       O    -6.68530   -9.00883   15.40605
      H1    -7.60614   -9.04166   15.05714
       H   -12.14647   -4.57336   12.86470
       O   -11.77753   -3.67679   13.06383
      H1   -11.09160   -3.37908   12.46678
       H    -5.12667   -5.38814    8.41394
       O    -5.34917   -5.19969    9.35956
      H1    -5.71396   -6.06403    9.68420
       H    -4.80833   -9.60936   11.80363
       O    -4.54809   -8.68712   11.51168
      H1    -4.74561   -8.12616   12.31667
       H    -1.28500   -4.64423   18.83469
       O    -2.20420   -4.56857   18.56252
      H1    -2.25644   -4.17784   17.71832
       H    -9.59532   -3.10774   17.07819
       O    -9.87016   -4.06314   17.15421
      H1   -10.55366   -4.11482   16.49809
       H    -9.20760   -7.35957   13.85685
       O    -9.16051   -8.30849   14.09757
      H1    -8.76781   -8.83901   13.36992
       H    -8.52237   -5.35596   17.26997
       O    -7.94017   -6.05949   17.54886
      H1    -7.33398   -5.96268   16.83502
       H    -8.72305   -1.46140   13.71235
       O    -8.17688   -1.62191   14.55045
      H1    -8.76961   -2.18073   14.99513
       H    -5.54290   -3.18555   15.81972
       O    -5.77075   -3.16516   16.74248
      H1    -5.81524   -2.25659   17.03987
       H    -6.18717  -12.16054   17.32873
       O    -7.05026  -12.21869   17.01294
      H1    -7.06975  -12.08920   16.09213
       H    -8.36145   -2.31979   11.60205
       O    -9.28863   -2.13026   11.93700
      H1    -9.81050   -1.92165   11.13147
       H    -3.91094   -7.07877   16.56548
       O    -3.43162   -7.65580   15.89995
      H1    -3.90896   -8.51630   15.72014
       H    -3.84211   -5.82324   18.20820
       O    -4.65217   -6.16014   17.80191
      H1    -5.14488   -5.39582   17.46399
       H    -5.28512   -6.54609   13.75416
       O    -4.35212   -6.76943   13.64889
      H1    -3.97823   -7.12629   14.53650
       H    -9.94606  -10.50161   17.43550
       O    -9.49767  -11.22615   17.87506
      H1    -8.57714  -11.32868   17.59865
       H   -13.00856   -7.05026   12.80824
       O   -12.93792   -6.17163   13.10885
      H1   -13.62206   -6.00450   13.80661

