129
frame 0 | Written by MDAnalysis XYZWriter (release 2.4.3)
       H     9.75804   15.78397    2.23196
       O     8.91737   16.15095    2.12646
      H1     8.21543   15.45651    2.34494
       H     6.40597   13.45116   -1.35635
       O     5.75631   13.52971   -2.06527
      H1     6.22002   13.13731   -2.85474
       H    14.16148   15.05807    1.64928
       O    14.05304   14.36483    0.92262
      H1    14.83985   13.86036    1.14155
       H     6.99239   13.25622    4.34321
       O     7.14410   12.31128    4.63994
      H1     6.27904   11.91776    4.74828
       H     6.51076   12.71462   -5.23588
       O     7.07034   12.77121   -4.47043
      H1     7.35784   11.85542   -4.28106
       H    13.05577   19.17860    1.99662
       O    12.91830   19.99650    2.56311
      H1    12.15766   19.88639    3.13530
       H    14.94584   19.19237   -3.09321
       O    14.13297   19.65646   -3.32682
      H1    13.82409   19.37838   -4.20151
       H     8.22900   10.52280   -1.23848
       O     7.25136   10.70109   -1.15592
      H1     6.92202   10.45207   -2.00130
       H    14.24922   16.61485    3.65562
       O    14.26472   15.71502    3.35116
      H1    13.88369   15.28501    4.07388
       H    15.94225   19.03700   -0.41852
       O    15.91324   19.65501   -1.13501
      H1    16.80117   19.67911   -1.46778
       H     7.09706   17.30181   -3.31655
       O     7.82904   17.85364   -2.91090
      H1     8.47295   17.82703   -3.59897
       H    12.46797   18.50199   -0.86887
       O    12.30008   18.56744   -1.78923
      H1    13.10940   18.96895   -2.21668
       H     3.40075   17.84773   -0.40245
       O     3.74117   17.61806   -1.26069
      H1     3.45461   18.39776   -1.79530
       H     3.39923   13.73826    1.14044
       O     2.74962   14.41775    0.87322
      H1     3.21843   15.23129    1.18181
       H    12.36976   11.34997   -2.20651
       O    12.19732   11.04965   -1.28196
      H1    11.27225   10.81179   -1.23067
       H     8.87367   16.76207   -1.06693
       O     9.80176   16.77760   -0.74350
      H1     9.71784   16.61563    0.24232
       H     5.68643   18.06644   -0.90917
       O     6.50452   18.45960   -0.61623
      H1     6.96387   18.64018   -1.45323
       H     8.72415   13.02929   -5.01371
       O     9.60964   12.85765   -5.41731
      H1    10.20466   13.22994   -4.73961
       H    12.04278   17.14270    6.34735
       O    12.98964   17.20164    6.18142
      H1    13.12961   18.00655    5.66457
       H    16.50164   16.87704   -0.21569
       O    16.07825   17.44728    0.47445
      H1    16.44716   17.08816    1.28572
       H     9.70610   14.44827    5.07406
       O    10.25064   13.67458    4.93420
      H1    11.13897   13.84192    4.56813
       H     8.46784   19.11072    2.39337
       O     8.10166   18.80524    3.20672
      H1     8.43668   17.86994    3.12233
       H    15.12770   18.97488    4.62512
       O    14.72865   18.35190    4.03581
      H1    14.13619   18.80042    3.53508
       H    13.90467   12.97137    5.02602
       O    13.18211   13.62058    5.14572
      H1    13.19594   13.96020    6.10305
       H     8.30979   15.24055    6.61357
       O     8.58656   15.62851    5.78694
      H1     7.91177   16.29570    5.59189
       H     4.62240   16.92674   -2.73665
       O     5.11724   16.27422   -3.27360
      H1     4.92421   15.47820   -2.80222
       H    14.08117   17.59647    0.95210
       O    13.16179   17.95137    0.97376
      H1    12.61135   17.12212    1.10097
       H     6.21067   14.98882    2.45377
       O     6.98999   14.35434    2.49936
      H1     7.14072   13.85613    1.61856
       H    11.32038   15.25403   -4.03363
       O    11.51635   14.41466   -3.59746
      H1    11.17122   14.57185   -2.67353
       H    10.81475   13.61577   -0.01070
       O    10.26950   13.92220   -0.80796
      H1    10.37621   14.89153   -0.79024
       H     6.09087   18.52494    1.13722
       O     5.64227   18.52015    1.99931
      H1     6.37110   18.73244    2.62973
       H     9.17919   16.69067   -5.81922
       O     9.19583   17.56127   -5.40659
      H1     9.45499   18.15305   -6.08012
       H    10.16760   17.91697    6.66681
       O    10.42455   17.64946    5.79798
      H1     9.79898   16.89388    5.62514
       H     9.52612   18.38724    0.45356
       O     9.66048   19.24183    0.85429
      H1     9.43013   19.91264    0.21072
       H     5.04698   16.98292    2.65306
       O     4.78228   16.06362    2.93081
      H1     3.89969   16.20042    3.30864
       H    12.07580   17.55857   -3.48175
       O    11.79075   17.41828   -4.38135
      H1    10.81413   17.54821   -4.42159
       H    13.91032   14.19280   -3.23283
       O    14.67686   14.01635   -3.71715
      H1    15.31476   13.66263   -3.09849
       H     7.28711   12.29014   -0.14442
       O     7.60973   13.12921    0.22305
      H1     8.45172   13.31655   -0.10140
       H    12.52350   15.40930    2.87631
       O    11.68342   15.21145    2.37813
      H1    11.85361   14.27402    2.04936
       H    12.73651   13.07087    1.11874
       O    11.85516   12.70064    1.45367
      H1    12.03938   11.97932    2.05170
       H     6.00618   16.33851    6.02307
       O     6.37468   17.17939    5.66516
      H1     6.55867   17.61905    6.52085
       H     9.74774   12.21121    3.41038
       O     9.49965   11.45736    2.94448
      H1     8.56590   11.62760    2.85517
       H    12.47404   12.69205   -5.88597
       O    12.77313   13.57370   -6.07852
      H1    12.65021   14.03727   -5.21307

