129
frame 4 | Written by MDAnalysis XYZWriter (release 2.4.3)
       H    17.40016    3.99726    6.00461
       O    17.31795    3.46117    6.76700
      H1    16.35429    3.36515    6.84458
       H    16.86630    5.45608    4.88254
       O    17.78816    5.06471    4.83053
      H1    18.32490    5.60808    5.47131
       H    13.19066    4.19478    2.04396
       O    13.80009    4.45916    1.33608
      H1    14.56604    4.79211    1.79525
       H    18.60537    5.23457    2.02554
       O    19.29102    5.80330    2.44482
      H1    19.91590    5.86856    1.74715
       H    13.77499    3.13010    8.85334
       O    14.38608    3.82771    8.50408
      H1    13.94119    4.66255    8.65417
       H    12.70738    8.63135    2.68707
       O    12.80965    7.70330    2.57201
      H1    13.30764    7.61072    1.76640
       H    12.01610    6.45221   -1.72222
       O    12.07271    6.68032   -0.77340
      H1    11.28863    7.01899   -0.34342
       H    19.01959    7.00133    8.35973
       O    18.89807    6.15556    7.75943
      H1    18.61458    5.31401    8.17453
       H    14.48445    4.47938    5.70827
       O    14.64730    3.69482    5.14084
      H1    13.76312    3.69025    4.67002
       H    12.50957    4.73958    4.14229
       O    12.41429    3.86476    3.79586
      H1    11.59931    3.48918    4.21030
       H    17.18575    1.15540    1.42260
       O    17.51416    1.70111    0.76160
      H1    18.51417    1.63271    0.76028
       H    16.56152   -2.00632   -1.55720
       O    16.57735   -1.54685   -2.39775
      H1    16.64806   -0.57156   -2.21091
       H    14.41360    0.24226    0.42161
       O    14.00388    0.99753   -0.02959
      H1    14.72007    1.50015   -0.42739
       H    17.91286    9.26970    2.16586
       O    18.23561    9.65312    2.99059
      H1    18.89567    9.05053    3.37859
       H    15.79664    0.81208    3.37138
       O    16.48622    0.36476    2.87816
      H1    15.96461   -0.25757    2.30071
       H    18.54083    2.47868    9.66010
       O    18.58848    3.25625    9.10214
      H1    17.80042    3.31890    8.51040
       H    17.09132    9.37968    4.42795
       O    16.52637    9.38726    5.21075
      H1    16.25487    8.50035    5.38494
       H    17.13597   -0.92244    4.06029
       O    17.24725   -1.85169    4.25614
      H1    17.73360   -1.96837    5.05893
       H    13.40203    0.37259    8.15735
       O    13.47919   -0.44378    7.65167
      H1    13.64155   -0.11734    6.78700
       H    16.54765    9.94302    0.46938
       O    16.95218    9.11116    0.57902
      H1    16.15130    8.53413    0.74118
       H    10.37326    4.81157    1.39166
       O    10.18036    4.05949    0.78907
      H1    10.86054    4.20233    0.16176
       H    17.25238    0.01061    7.21106
       O    16.91705    0.24731    8.09466
      H1    16.57257   -0.55472    8.52407
       H    15.59254    6.76717    6.51618
       O    15.78570    6.84452    5.53704
      H1    14.90924    6.79794    5.14831
       H    19.13444    0.34535    6.18119
       O    18.33137    0.69729    5.79001
      H1    18.19134    1.52499    6.29923
       H    12.68682    0.48177   -1.17957
       O    12.03792    0.45649   -1.89825
      H1    11.63091   -0.46000   -1.88560
       H    19.28086   -3.59049    2.86876
       O    18.32909   -3.59789    2.68381
      H1    17.92275   -2.85598    3.21503
       H    12.05289    1.43583    1.27193
       O    11.30876    1.50144    1.87697
      H1    10.68114    2.12925    1.47914
       H    13.72550   -1.77903    4.49794
       O    13.23818   -1.41769    3.72211
      H1    13.01151   -0.48348    3.87333
       H    12.98003    7.04292    4.29342
       O    13.13193    6.42729    5.06911
      H1    12.54253    6.85569    5.72293
       H    16.79875    1.74461   -0.82877
       O    16.27094    1.64456   -1.66259
      H1    16.61315    2.29829   -2.29646
       H    18.06482    5.02382   -2.68157
       O    18.57305    5.80793   -2.59748
      H1    18.37025    6.41410   -3.31037
       H    13.49123    5.40081   -2.89224
       O    12.91568    6.12589   -3.25130
      H1    13.44038    6.78492   -3.75164
       H    16.24308    3.37493   -4.24912
       O    17.03755    3.59889   -3.66219
      H1    17.82195    3.24158   -4.07705
       H    14.97807   -1.98709    0.90136
       O    14.62893   -1.19278    1.27694
      H1    14.33639   -1.41760    2.14070
       H    18.55175   -2.44444   -0.13715
       O    17.81897   -3.00890    0.14245
      H1    18.15112   -3.06363    1.08105
       H    17.32829    3.34016    2.10869
       O    17.10175    4.27183    2.13202
      H1    17.34569    4.56955    3.02931
       H    15.63202    1.19314    6.13847
       O    14.96688    1.07471    5.41338
      H1    14.82152    2.00525    5.33142
       H    14.95176    6.85426    0.19834
       O    14.30427    7.59400    0.28308
      H1    13.46231    7.29709   -0.08038
       H    13.62090    9.53013   -1.98293
       O    14.58381    9.45217   -1.85826
      H1    14.73402    8.74792   -1.25245
       H    11.05878   -0.20278    4.77949
       O    11.54382    0.68139    4.67230
      H1    11.31446    0.91193    3.75048
       H    18.44156    8.36436   -0.19624
       O    19.22725    8.01983   -0.63096
      H1    18.78160    7.34798   -1.13669
       H    15.38687    4.09292   -1.82199
       O    14.46141    4.33154   -1.91578
      H1    14.13464    4.54097   -1.05917
       H    16.85564    5.23815    0.41206
       O    16.37541    5.88860   -0.04730
      H1    16.81642    6.12428   -0.84222

