129
frame 7 | Written by MDAnalysis XYZWriter (release 2.4.3)
       H    -6.05846   -9.00898    5.79936
       O    -5.98124   -8.33867    6.56576
      H1    -6.91677   -8.11016    6.73742
       H    -2.11741   -8.23969    0.28896
       O    -2.84704   -8.60457    0.80507
      H1    -3.00266   -8.11250    1.63450
       H     0.69949   -8.58795    1.87067
       O     0.64156   -8.40673    0.91795
      H1     1.48587   -7.95478    0.67285
       H     1.83337  -13.51038    7.94322
       O     2.27698  -13.01918    8.66403
      H1     2.61557  -12.15863    8.27338
       H     4.29976   -7.76047    6.15591
       O     4.38981   -6.96192    6.73346
      H1     4.49036   -6.32790    6.02602
       H    -1.21129   -6.01671    5.97530
       O    -0.52726   -6.66564    6.19263
      H1    -1.04958   -7.39097    6.55477
       H     0.65355  -12.11368   11.38107
       O     0.89747  -13.02758   11.16045
      H1     1.21756  -13.00526   10.26301
       H     1.73595   -6.80959    3.84245
       O     1.05660   -7.42934    3.54096
      H1     0.80747   -7.81662    4.36604
       H     2.81070  -10.66048    3.50194
       O     3.05301   -9.91763    2.95076
      H1     2.40552   -9.15335    3.00775
       H    -3.55748  -10.80921    5.37829
       O    -3.24746   -9.94872    5.01269
      H1    -3.19368  -10.14481    4.05946
       H    -0.04255  -13.37078    5.36353
       O     0.64614  -13.11428    6.01583
      H1     1.39218  -12.91061    5.45383
       H    -0.30176   -3.61406    7.34086
       O    -1.12819   -3.13218    7.19951
      H1    -0.84496   -2.32608    6.66110
       H    -2.24150   -6.71558    9.65681
       O    -1.63731   -7.12537   10.25977
      H1    -1.13093   -6.42917   10.73279
       H    -5.36625   -6.94620    5.43284
       O    -4.82698   -6.31262    4.88877
      H1    -5.31243   -6.15613    4.05967
       H    -2.78124   -8.69183   13.21593
       O    -1.89668   -8.28452   12.93391
      H1    -2.12063   -7.89880   11.97809
       H    -4.94896   -7.51439   10.97844
       O    -5.30296   -7.09488   10.23188
      H1    -4.74406   -7.47820    9.52838
       H    -3.98018  -12.29301   10.53288
       O    -4.49710  -12.52189   11.33125
      H1    -4.80753  -13.42200   11.13985
       H    -5.26644  -11.93651    1.72804
       O    -5.15118  -11.95236    2.70420
      H1    -5.58577  -12.71063    3.15089
       H     0.03386  -10.70018    8.57976
       O    -0.48589  -11.27050    8.02640
      H1    -0.02360  -11.77662    7.36806
       H    -0.08518   -9.60794   12.39785
       O     0.48862  -10.17529   11.80818
      H1     1.45697   -9.99757   12.07118
       H    -1.91450   -9.51790    5.99792
       O    -1.25798   -9.16473    6.62787
      H1    -0.89483   -9.95640    7.14200
       H     2.68906   -5.82899   10.68942
       O     1.74265   -5.84642   10.36349
      H1     1.18940   -5.17630   10.83986
       H    -4.19311  -15.36220    6.46709
       O    -4.00965  -14.50733    6.05191
      H1    -4.76002  -14.47753    5.44002
       H    -2.53784  -10.06634    1.95829
       O    -2.52451  -10.78216    2.55112
      H1    -3.34115  -11.27935    2.59880
       H     3.07937   -7.64406    7.75216
       O     2.77974   -8.23033    8.45686
      H1     1.86645   -8.09434    8.66420
       H     0.26533   -9.27339   10.53260
       O     0.32613   -8.85263    9.60389
      H1    -0.32622   -8.17022    9.78406
       H    -3.03881   -8.46141    8.05510
       O    -3.90072   -8.46012    8.49002
      H1    -4.50365   -8.56537    7.73796
       H    -2.51149   -4.51099    8.06235
       O    -2.97897   -5.23781    8.49831
      H1    -3.81313   -5.19302    8.00632
       H     0.31858   -9.57004    5.94936
       O     1.18788   -9.82032    5.49951
      H1     1.74293  -10.13130    6.22686
       H     3.64413  -11.18210    6.85499
       O     2.85810  -10.86924    7.35163
      H1     3.08224  -10.04955    7.79537
       H    -2.38384   -3.91124    5.72257
       O    -2.38202   -4.61316    5.07717
      H1    -3.33198   -4.66695    4.77480
       H     4.01440   -9.22533    4.44510
       O     4.74803   -9.01800    5.00028
      H1     5.30407   -9.78221    5.14924
       H    -2.24480   -6.94911    3.17968
       O    -3.10936   -7.43234    3.25851
      H1    -3.60367   -7.09338    4.00227
       H     0.35705  -10.66961    4.02318
       O     0.31240  -11.39270    3.33589
      H1    -0.47936  -11.17190    2.85440
       H     3.41322  -13.26978    4.59768
       O     3.10624  -12.55643    4.03106
      H1     2.53153  -12.93243    3.31456
       H     0.46125   -5.87610    7.48450
       O     1.10658   -5.12410    7.64902
      H1     1.34549   -5.20913    8.59543
       H    -1.62515  -12.84678    4.84237
       O    -1.59840  -13.82989    4.68498
      H1    -2.03736  -14.16882    5.51097
       H    -6.00295   -3.88396    6.29981
       O    -5.93978   -4.48388    7.02566
      H1    -5.62014   -5.25958    6.50190
       H    -4.25434  -11.50954    7.97704
       O    -4.62636  -11.66346    7.06450
      H1    -4.57275  -12.59494    6.92257
       H    -7.24044  -13.02704    8.31919
       O    -7.25063  -12.07510    8.24100
      H1    -6.39702  -11.93623    7.73691
       H    -5.92683  -10.57186    3.65056
       O    -6.14835   -9.63378    3.92226
      H1    -5.36273   -9.10132    3.69759
       H    -2.17378  -11.35365    9.21173
       O    -3.16105  -11.23514    9.30664
      H1    -3.25314  -10.24027    9.23440
       H    -1.09998   -5.19995    3.33260
       O    -0.98829   -5.85535    2.58539
      H1    -0.29200   -6.36345    2.97299

