129
frame 7 | Written by MDAnalysis XYZWriter (release 2.4.3)
       H     4.85303   11.76079   18.74634
       O     4.28507   12.07917   18.01275
      H1     4.82345   11.95291   17.20469
       H     8.09429    9.80660   10.84378
       O     8.54030    8.99113   10.55033
      H1     8.01074    8.82285    9.74622
       H     3.45637   10.53344   18.06865
       O     3.29092    9.56450   18.14967
      H1     4.18423    9.17831   18.18143
       H     4.72393   11.91938   14.86016
       O     5.48724   11.57801   15.37529
      H1     5.91539   10.84233   14.92572
       H     5.84987    3.43377   10.98497
       O     4.98086    3.01563   10.77627
      H1     4.45306    3.19875   11.55677
       H     2.14093    3.55865    9.20895
       O     2.66623    4.17729    9.75626
      H1     3.51298    3.64946    9.94077
       H     5.93261    5.39356   18.45629
       O     5.42037    6.21658   18.53977
      H1     5.03747    6.30388   17.62438
       H     3.32295   13.78906   14.50433
       O     3.51098   12.91348   14.24637
      H1     3.93733   13.00074   13.38460
       H    10.29582    9.76151   10.83895
       O    10.90831   10.34940   11.23960
      H1    11.46092   10.76283   10.55372
       H     6.31448    5.55134    5.19781
       O     5.80770    5.01205    5.86157
      H1     6.14526    5.40644    6.66866
       H     3.63172    6.32260   16.43891
       O     4.31529    6.82813   16.02010
      H1     3.94624    7.70723   15.92270
       H     9.91140    6.75564   14.93110
       O    10.51019    5.97414   14.73635
      H1    10.04352    5.39574   14.09461
       H     6.57469   15.01302   14.03015
       O     7.52592   15.19342   14.37242
      H1     7.77440   14.30254   14.64399
       H     3.05563    3.87498   13.51640
       O     3.76178    3.18663   13.52098
      H1     3.84252    2.98980   14.43777
       H     3.69272   12.06329    7.16954
       O     2.74346   12.06589    7.35748
      H1     2.83099   11.76250    8.31641
       H     9.22230    8.54868   16.08656
       O     8.86991    8.30281   15.21720
      H1     8.21556    7.60525   15.43190
       H     4.67848    6.47220   14.16672
       O     5.05252    6.41185   13.28631
      H1     5.54766    7.22836   13.08424
       H     7.97345    8.26093    7.34762
       O     7.40589    8.54212    8.08369
      H1     7.27600    9.49039    8.12384
       H     9.25451   12.55131   15.30367
       O     8.38447   12.66113   14.81490
      H1     7.61420   12.38830   15.29667
       H     6.89309    6.86479    8.61004
       O     6.49920    5.99269    8.41933
      H1     5.65395    6.10527    8.87677
       H     2.43841    9.48425   15.20081
       O     2.28646    8.76431   15.81614
      H1     2.60667    9.06740   16.66836
       H     4.71709   13.97821   10.80128
       O     4.54438   13.15353   11.32701
      H1     3.81862   12.64517   10.92210
       H     6.60907    1.74220   13.54938
       O     6.65764    2.58212   14.01819
      H1     5.94594    3.11356   13.57149
       H     7.51538    4.38795   13.77373
       O     7.67588    5.35214   13.66681
      H1     6.75287    5.61689   13.57330
       H    10.62542    6.44458   10.94068
       O    10.85385    7.34114   10.71715
      H1     9.98378    7.71772   10.58911
       H     5.97118   12.16326   11.45150
       O     6.60006   11.45986   11.10981
      H1     7.43136   11.83064   11.20872
       H     1.11757    8.36720    9.15238
       O     0.84244    8.90751    9.93901
      H1     1.04846    8.50049   10.77607
       H     0.94403    6.13870   15.66499
       O     0.75700    6.68008   14.88409
      H1     1.45268    7.35198   15.00045
       H     0.30230   11.29058   13.22595
       O    -0.58437   11.35774   12.92288
      H1    -0.63570   11.92091   12.15175
       H     9.05453   12.46688   12.92541
       O     9.37009   12.57596   12.01803
      H1     9.87004   11.82993   11.84050
       H     4.96989   10.83766    5.90332
       O     5.16720   11.78706    6.18335
      H1     5.92321   11.79198    6.74423
       H     1.49175    5.19995   12.23267
       O     2.08757    5.48062   12.86522
      H1     1.62692    5.91005   13.56558
       H     7.89617   11.68095    8.14584
       O     7.00767   11.35987    8.29482
      H1     6.76842   11.49668    9.20984
       H     2.77015    7.33655   12.36912
       O     2.97920    8.26606   12.12495
      H1     3.89563    8.31632   12.30309
       H     2.93494    7.44733    8.65944
       O     2.10416    7.49028    8.21030
      H1     2.29255    8.22916    7.59162
       H     3.57189    5.82305    9.84899
       O     4.15936    6.56038    9.70957
      H1     4.22903    7.04032   10.53835
       H     6.67581    8.75518   18.26476
       O     6.09867    9.26669   17.68742
      H1     6.57149   10.11325   17.62393
       H    -0.14532    7.04476   13.33815
       O    -0.21504    7.43945   12.40386
      H1    -1.16570    7.68181   12.39088
       H     6.31330    9.13190   12.89610
       O     5.94875    8.74982   12.11519
      H1     5.88559    9.47807   11.47952
       H     2.11425   10.39516   13.10034
       O     1.90585   10.73857   13.98329
      H1     2.56786   11.46859   14.06423
       H     1.21841   11.61214    9.98588
       O     2.18876   11.43122   10.00650
      H1     2.09754   10.43192    9.95543
       H     7.25101    8.86802   15.04877
       O     6.29472    9.07080   14.88430
      H1     6.02785    9.22418   15.81631
       H     6.99733    5.10629   10.07654
       O     7.44179    4.43302   10.62819
      H1     7.63331    4.91847   11.43758

