129
frame 0 | Written by MDAnalysis XYZWriter (release 2.4.3)
       H    -1.62937    9.47096    7.64547
       O    -2.42913    9.63272    8.05910
      H1    -2.79720    8.79658    8.32860
       H     1.75525   10.14218   -1.23084
       O     2.00163    9.39613   -1.76212
      H1     2.54384    8.78137   -1.18330
       H    -2.68699   13.78505    3.86905
       O    -2.80705   14.69596    3.61132
      H1    -3.43905   14.68461    2.87743
       H    -1.45578    5.58836    0.57442
       O    -1.69741    4.67847    0.34367
      H1    -1.17863    4.02215    0.83890
       H     0.28797    4.68234    3.97148
       O    -0.14774    5.38529    3.47833
      H1     0.63034    5.75878    3.02329
       H     1.87495    4.47436    6.34421
       O     0.99791    4.68227    6.60529
      H1     1.10150    5.59496    6.97906
       H     4.02036    5.98482    2.16039
       O     4.46010    5.22706    1.78127
      H1     3.79997    4.79036    1.36204
       H    -3.77048    9.94335    0.07813
       O    -3.54129    9.08338   -0.32193
      H1    -4.15102    8.87777   -1.09810
       H     0.36955   11.90124   -1.09551
       O     1.07063   11.62635   -0.55017
      H1     1.78325   12.17624   -0.85325
       H    -3.42132    7.34576    0.97628
       O    -3.75075    6.62443    1.51238
      H1    -3.15632    6.71180    2.26957
       H     1.19205    6.93607    1.36303
       O     1.90443    6.71333    1.99723
      H1     2.04064    7.52586    2.44704
       H     0.57298    9.22954    6.16440
       O     0.50491    9.42406    7.10978
      H1     1.22246    9.97638    7.37199
       H    -7.05117    8.96911    2.10127
       O    -6.34237    8.75522    1.39159
      H1    -6.50808    7.82854    1.18423
       H    -4.37315    9.10139    2.62533
       O    -4.14268    9.62953    3.38598
      H1    -4.57396   10.49992    3.26191
       H    -2.40763    9.83560   -1.54079
       O    -1.99506   10.35738   -2.23145
      H1    -2.47142   10.18509   -3.04415
       H     3.23604    7.32985    0.59718
       O     3.52621    7.91986   -0.08696
      H1     4.02170    7.44226   -0.75294
       H     3.16297   11.37174    7.46420
       O     2.35243   11.04684    7.80698
      H1     2.47543   11.02363    8.78551
       H    -5.96938    8.08163    5.84587
       O    -6.04938    8.50225    4.97362
      H1    -5.17588    8.85262    4.62963
       H     1.49630   13.23546    5.98895
       O     1.76324   13.45403    6.88936
      H1     1.97788   12.57396    7.26320
       H    -0.12193   15.35645    2.58920
       O     0.32729   14.52842    2.44960
      H1     1.21251   14.75160    2.04151
       H    -0.91326   13.71364    1.21498
       O    -1.53698   13.66638    0.48305
      H1    -1.16852   14.34554   -0.14135
       H    -1.73231    6.19979    3.90949
       O    -2.59306    6.57626    3.88212
      H1    -3.01325    6.26714    4.74924
       H     3.41671    8.89632    3.17042
       O     2.55383    9.08649    3.59885
      H1     2.19014    9.76642    3.02376
       H    -2.95617    7.18064    9.66448
       O    -2.81350    7.00874    8.73671
      H1    -1.85172    6.88608    8.65548
       H    -5.20612   12.52848    4.17644
       O    -5.05924   12.11988    3.27049
      H1    -5.58750   12.62704    2.63590
       H    -1.55345   12.96037    7.72033
       O    -1.03685   13.36660    8.40478
      H1    -0.05400   13.39569    8.17398
       H    -4.02899    5.36218    5.74273
       O    -3.83721    6.27892    6.08841
      H1    -3.39099    6.09247    6.93333
       H    -0.98234    8.69441    3.51169
       O    -1.36238    9.26707    2.83025
      H1    -2.28553    9.24060    3.15922
       H    -2.37586   11.98566    4.95263
       O    -2.04680   12.11682    3.97204
      H1    -2.12669   11.30042    3.49749
       H     4.97636   11.27663    3.50900
       O     4.79331   11.01187    4.45170
      H1     3.89397   10.71089    4.33350
       H    -3.98276   11.98895    1.42534
       O    -3.91537   11.78972    0.48717
      H1    -3.21578   12.44767    0.32785
       H    -0.65925    8.05156    1.19383
       O    -0.37157    7.29642    0.65322
      H1    -0.50371    7.62260   -0.25307
       H     0.95389   11.53443    2.81966
       O     1.56161   11.11712    2.22031
      H1     1.19941   11.44440    1.32533
       H    -2.66234   11.21579    7.13885
       O    -2.70392   12.02234    6.63358
      H1    -3.64301   12.23277    6.61718
       H     2.02002    6.97359    8.41874
       O     1.15196    7.01705    7.98315
      H1     0.94638    7.89809    7.63613
       H    -0.22292   12.47997    4.37528
       O     0.66573   12.81302    4.45730
      H1     0.73112   13.59603    3.84796
       H     1.17573    7.98999    4.31546
       O     0.30231    7.65131    4.54459
      H1     0.06606    6.88132    4.01383
       H    -4.99902    4.13744    4.37597
       O    -4.20766    3.68857    4.71827
      H1    -3.60617    3.75577    3.96870
       H    -4.86749    6.06118    2.79382
       O    -5.59816    5.78410    3.43386
      H1    -5.73278    6.55631    3.98499
       H     5.46881    7.62834    3.89270
       O     4.91729    7.82524    3.12128
      H1     5.49651    7.99401    2.37546
       H     0.60406    8.45976   -1.82003
       O    -0.21530    7.99397   -2.05386
      H1    -0.88254    8.63468   -2.28868
       H    -6.60150    6.72259    7.34280
       O    -5.97139    7.43723    7.45257
      H1    -5.12952    7.04393    7.23236
       H     4.30111   11.64045    0.90781
       O     4.03483   12.08421    1.75767
      H1     3.11115   11.81332    1.96371

