129
frame 8 | Written by MDAnalysis XYZWriter (release 2.4.3)
       H    -5.14955    6.49433   -7.32589
       O    -5.21586    5.64359   -6.82081
      H1    -6.05951    5.69761   -6.44169
       H    -4.49960   -2.63291   -7.45211
       O    -4.00802   -1.84315   -7.51118
      H1    -4.33609   -1.46939   -8.34083
       H     2.86099    4.60521  -10.92577
       O     3.30820    3.80924  -10.63327
      H1     3.63372    4.06159   -9.78606
       H    -4.85698   -0.95506   -5.94477
       O    -5.08137   -0.33298   -5.23387
      H1    -4.42091    0.35895   -5.19847
       H    -0.44565    8.03912   -5.31715
       O    -1.02747    7.80256   -6.06959
      H1    -1.35683    8.72102   -6.24644
       H    -0.43340    5.09295   -6.61007
       O     0.08151    5.22989   -7.42927
      H1    -0.35056    4.70086   -8.08364
       H     0.73182    0.77292   -5.58293
       O     0.54302    1.66909   -5.90545
      H1     0.02826    1.52968   -6.68764
       H     0.16781   -3.84012   -9.98374
       O    -0.26393   -2.99248  -10.02013
      H1    -0.87236   -3.03329   -9.21081
       H     0.10837    6.62853  -12.42091
       O    -0.89238    6.50467  -12.30606
      H1    -0.87665    5.69712  -11.83024
       H    -2.81103    7.37759  -10.25642
       O    -3.65060    6.95953  -10.41473
      H1    -3.94304    7.33424  -11.23834
       H     1.34679    2.86957  -15.47198
       O     1.05492    3.65657  -14.89352
      H1     0.93179    3.40141  -13.99422
       H     2.14299   -0.47865   -4.25265
       O     1.24957   -0.64654   -4.62579
      H1     1.29518   -1.58319   -4.96198
       H     4.62450    4.01499   -7.63610
       O     3.71959    4.14958   -7.96036
      H1     3.19130    3.39499   -7.76436
       H    -0.42716    2.80950   -9.15148
       O     0.43529    3.16705   -9.17512
      H1     0.49726    3.55663  -10.10356
       H    -6.71622    3.09812   -8.63749
       O    -5.76641    3.26215   -8.43713
      H1    -5.81851    4.03895   -7.87123
       H     4.89449   -0.24967   -9.65959
       O     5.35429    0.13200  -10.44937
      H1     4.63803    0.43752  -11.03885
       H     0.53906    6.69291   -8.09126
       O     0.57742    7.66914   -8.26742
      H1     0.09713    7.98001   -7.45321
       H     2.35799    7.27048  -11.07937
       O     2.63894    6.38660  -11.26057
      H1     2.76051    6.50728  -12.23904
       H    -0.93073   -2.86446   -6.76911
       O    -1.65213   -3.02632   -7.38115
      H1    -2.44217   -2.43912   -7.23053
       H    -2.29598   -0.37716   -4.52192
       O    -2.48507    0.51866   -4.83226
      H1    -2.26576    1.21341   -4.22162
       H     2.71282   -1.55598  -11.95015
       O     3.22338   -2.25448  -12.36058
      H1     2.90291   -3.07355  -11.90591
       H     1.31342    2.61406  -12.00422
       O     0.58248    3.24855  -12.04837
      H1    -0.26844    2.74702  -12.16268
       H    -3.94228    5.51168   -5.41418
       O    -3.40759    5.79167   -4.70176
      H1    -2.80557    5.05809   -4.57865
       H     0.87527    0.08143  -10.14269
       O     1.55524    0.13954  -10.83442
      H1     1.86612    1.05614  -10.84683
       H    -0.87613    8.21949   -9.07428
       O    -1.51774    8.61365   -9.65851
      H1    -2.02056    9.09186   -9.00863
       H     3.89857    1.71032  -13.02698
       O     3.56349    1.57291  -12.11754
      H1     3.65069    2.44106  -11.60943
       H    -2.81198    3.92757  -11.05014
       O    -2.51018    4.54115  -10.38784
      H1    -3.09979    5.30594  -10.36044
       H     0.17572    2.28413   -2.73301
       O    -0.39024    2.31286   -3.51728
      H1     0.05998    2.05468   -4.29457
       H    -1.78538    1.44841  -13.57894
       O    -1.09015    1.35374  -14.30524
      H1    -0.48008    0.62246  -13.98167
       H     3.60497    1.03580   -6.03139
       O     3.20789    1.55394   -6.81006
      H1     2.29337    1.73280   -6.60674
       H     0.49045   -0.38616  -12.23726
       O     0.29965   -0.66719  -13.10081
      H1    -0.29887   -1.45256  -12.97229
       H     2.46461    4.51024   -4.16976
       O     2.72634    4.86800   -3.33013
      H1     1.89861    4.90379   -2.76636
       H    -2.42208    1.27050  -11.45026
       O    -2.74021    1.94596  -12.10043
      H1    -3.66606    2.10717  -12.11087
       H    -1.75653    0.58090   -9.33896
       O    -1.52302    0.05953  -10.16529
      H1    -2.33596   -0.39753  -10.41403
       H    -0.96741   -2.80449  -11.56315
       O    -1.46042   -2.72482  -12.38535
      H1    -1.52077   -3.56787  -12.76696
       H    -4.82275   -0.45036  -10.44535
       O    -4.25151   -1.13250  -10.19624
      H1    -4.31031   -1.88137  -10.76536
       H    -3.37796    4.77117   -7.45645
       O    -2.80183    4.05783   -7.73331
      H1    -2.66101    4.24133   -8.67636
       H    -4.93691    2.77123  -10.37743
       O    -5.21605    2.81034  -11.28783
      H1    -5.59115    3.68246  -11.31762
       H     3.65784    6.11583   -7.51834
       O     3.42257    7.04284   -7.32549
      H1     2.47470    7.15976   -7.55754
       H    -0.77018    3.80990   -4.32879
       O    -0.83552    4.65876   -4.74684
      H1    -0.62079    5.22814   -3.97796
       H     4.14894   -1.57118   -7.23318
       O     3.81332   -0.96163   -7.91506
      H1     3.64723   -0.13964   -7.41501
       H    -2.00518    0.98796   -6.89178
       O    -1.72695    1.45051   -7.66270
      H1    -2.37598    2.18494   -7.61139
       H     2.35957   -1.89255   -7.97635
       O     1.77702   -2.66088   -8.15951
      H1     1.08174   -2.39320   -8.74008

