129
frame 11 | Written by MDAnalysis XYZWriter (release 2.4.3)
       H   -10.08190   14.51179   15.84172
       O    -9.50935   13.77773   16.07062
      H1   -10.08473   13.33340   16.66992
       H    -8.81007   11.00078   13.52522
       O    -9.45348   11.70599   13.54938
      H1    -8.87079   12.53117   13.46694
       H   -11.75211   13.70542   14.10461
       O   -11.90955   12.79234   13.96264
      H1   -11.14280   12.42950   13.61072
       H   -10.16593   19.28039   16.65098
       O   -10.22935   18.33497   16.66103
      H1    -9.83635   18.03032   15.82143
       H   -13.60049   11.97797   16.74658
       O   -13.85955   12.47171   15.93348
      H1   -13.03687   12.52024   15.38547
       H   -10.11560   17.08032    7.36731
       O    -9.97411   16.15863    7.71152
      H1    -9.96908   15.59737    6.92871
       H    -4.93622   15.65150   12.43484
       O    -5.31211   15.20296   13.18427
      H1    -6.26719   15.21243   12.98418
       H   -10.43595   16.87208   11.98050
       O   -10.18118   15.92839   12.08963
      H1   -10.99356   15.43536   11.94416
       H   -11.28255   18.89420    7.29803
       O   -10.36041   18.66438    7.18636
      H1   -10.06676   19.23761    6.45658
       H    -7.50098   15.07156    8.89554
       O    -7.20866   15.78864    8.37739
      H1    -8.05036   16.15713    8.11076
       H   -13.89047   16.93192    8.98415
       O   -14.76716   17.36324    9.29441
      H1   -14.58029   17.81743   10.11246
       H    -9.54564   17.15731   18.18237
       O    -9.10805   16.52066   18.73724
      H1    -8.62290   15.95086   18.08229
       H   -13.67344   18.31294   17.00202
       O   -14.10808   19.16109   17.01300
      H1   -13.65288   19.62340   16.35522
       H   -11.72521   17.74449   16.81388
       O   -12.52855   17.16087   16.78053
      H1   -12.58464   16.73678   17.64849
       H    -8.80779   14.94250   12.62675
       O    -8.22308   14.16728   12.77572
      H1    -7.68651   14.26046   11.92586
       H   -15.20385   17.71807   16.35717
       O   -15.99249   17.12173   16.22190
      H1   -15.83800   17.05271   15.29603
       H   -13.56633   16.07447   14.22022
       O   -14.45595   15.90636   13.79553
      H1   -14.81945   15.29893   14.39848
       H    -5.81964   11.98330   12.79011
       O    -6.28252   11.58864   12.02631
      H1    -5.57446   11.41539   11.39599
       H   -13.85192   17.21086   12.02260
       O   -14.16114   18.11141   11.80155
      H1   -13.49788   18.77179   11.97506
       H   -10.96305   15.93165   14.13961
       O   -11.66114   15.50426   14.62378
      H1   -11.78748   16.05593   15.43008
       H   -12.43208   13.69270   12.33393
       O   -12.53759   14.35815   11.59708
      H1   -12.34803   13.96273   10.75344
       H    -8.22395   17.00936   14.81284
       O    -9.12681   17.20805   14.48614
      H1    -9.09426   18.00592   13.94703
       H    -6.00529   19.18913    7.25906
       O    -6.87455   18.71051    7.35776
      H1    -7.39593   19.38759    7.74759
       H    -5.62054   19.68814   16.22683
       O    -5.35394   19.16378   15.48614
      H1    -4.44420   18.85707   15.63900
       H   -12.58850   14.84371    8.71682
       O   -12.50333   15.69274    8.37553
      H1   -11.57890   15.83958    8.10338
       H    -8.37793   14.49892   16.90907
       O    -7.62715   14.84331   17.46989
      H1    -7.43675   15.60416   16.89184
       H   -11.15343   13.19188    6.41737
       O   -10.50516   13.79657    5.94535
      H1    -9.78556   13.47621    6.52999
       H   -15.42072   18.52230   13.13844
       O   -16.03288   18.78210   13.86711
      H1   -16.90218   18.43530   13.60387
       H   -14.75504   17.92910    7.34984
       O   -14.60648   18.22431    6.44856
      H1   -13.90714   17.59032    6.18617
       H    -3.90481   16.23979   10.45977
       O    -4.38225   16.71393   11.12718
      H1    -5.08175   17.27387   10.69593
       H    -9.14950   19.43172   12.15504
       O    -9.91765   18.98151   12.55179
      H1   -10.71186   19.54071   12.34721
       H   -14.71590   14.36726   11.66890
       O   -15.46948   14.03149   11.17347
      H1   -16.16452   14.76515   11.14916
       H    -4.95488   13.44224   14.18977
       O    -5.00317   12.50140   14.40159
      H1    -5.32069   12.49863   15.33146
       H    -6.28964   16.08179   15.04495
       O    -6.77573   16.72526   15.56300
      H1    -6.18574   17.50484   15.64232
       H   -17.13828   15.16845    8.85083
       O   -16.97563   15.83826    9.52946
      H1   -16.16585   16.29505    9.28862
       H   -12.87194   15.59274    6.55060
       O   -12.95650   16.12730    5.70508
      H1   -13.27636   15.51032    5.08277
       H    -5.25488   18.96790    9.73406
       O    -5.99004   18.34615    9.85960
      H1    -6.26497   18.17644    8.92723
       H    -6.61347   13.12764   10.93088
       O    -6.60143   14.02652   10.64444
      H1    -5.83158   14.39667   11.09033
       H    -9.42783   12.53808    8.59857
       O    -9.07342   12.39287    7.69781
      H1    -9.52561   11.54487    7.36455
       H    -5.50238   16.60773    5.58712
       O    -5.28492   15.99425    6.33880
      H1    -5.97338   15.95315    6.98683
       H    -8.89222   13.28172   10.68831
       O    -9.71382   13.16430   10.16333
      H1   -10.16850   12.54277   10.80112
       H   -12.58878   11.72322   10.16656
       O   -11.81264   11.18109   10.40886
      H1   -12.00795   10.22961   10.48934
       H   -14.32026   13.45613    9.75110
       O   -13.44422   13.18728    9.34189
      H1   -13.57300   13.04419    8.44411

