129
frame 10 | Written by MDAnalysis XYZWriter (release 2.4.3)
       H   -12.05521    9.56841    3.06019
       O   -12.97775    9.72477    2.70839
      H1   -12.92437   10.48383    2.08497
       H    -8.56511    8.46242    6.52013
       O    -8.02443    7.72714    6.99269
      H1    -8.61073    7.23977    7.59275
       H   -12.91077   10.58839    6.49559
       O   -12.18222   10.10322    6.90535
      H1   -12.21819   10.09634    7.87473
       H   -12.09519    6.59004    8.25321
       O   -11.52373    5.99320    7.69074
      H1   -11.42578    6.62385    6.94357
       H    -9.50012    4.15402    5.25881
       O    -9.07652    4.36223    4.37723
      H1    -8.30300    3.79086    4.19718
       H    -7.32794   14.33632    7.09368
       O    -7.19593   15.20758    6.68811
      H1    -7.92791   15.65200    7.18967
       H   -10.96043    3.00793    6.89939
       O   -10.00696    2.92011    6.71837
      H1    -9.48839    3.25678    7.41748
       H    -6.77040    4.78818    1.83696
       O    -6.78144    4.71108    0.88460
      H1    -7.64709    4.31566    0.64061
       H    -9.40826    7.69543   10.92254
       O   -10.02431    8.12970   11.53583
      H1    -9.50876    8.71724   12.13469
       H   -10.44323   10.11966    6.22114
       O    -9.50625    9.94932    5.96488
      H1    -9.49546    9.75687    5.02740
       H    -8.31574    6.47379    4.10841
       O    -8.07273    7.23297    3.64313
      H1    -7.85464    6.73870    2.87043
       H    -9.02332   12.68397    2.67923
       O    -8.66173   11.84219    2.43004
      H1    -8.13669   11.99331    1.63793
       H    -5.91124    6.17810    9.64921
       O    -5.81865    7.08413    9.94318
      H1    -6.07410    7.73952    9.21412
       H    -5.31787    9.12857    2.65507
       O    -4.63056    8.81921    3.36751
      H1    -5.21965    8.72317    4.12938
       H    -6.61012   11.78036   13.10822
       O    -7.23035   11.48858   12.39562
      H1    -6.63422   11.53799   11.59070
       H   -12.35155    8.71178    5.80230
       O   -12.37674    7.97165    5.19322
      H1   -13.18268    7.53828    5.32716
       H    -8.61212    3.58147   10.01863
       O    -8.52933    3.62797    9.03684
      H1    -7.61041    3.88739    8.81847
       H    -2.68550    4.75404    4.67172
       O    -2.53401    5.68186    4.37749
      H1    -3.18134    6.14094    5.01337
       H    -4.75883    8.44392   10.17949
       O    -4.25751    9.29253   10.18074
      H1    -4.08853    9.42876   11.13510
       H    -4.63528    7.60026    6.02296
       O    -5.47307    7.36009    5.60698
      H1    -6.09480    7.48298    6.35274
       H    -5.52108   12.06524    3.58679
       O    -6.15539   12.35134    2.87124
      H1    -6.98082   11.93113    3.14092
       H    -5.42398    3.72462    8.82034
       O    -5.98423    4.54191    8.69333
      H1    -5.90892    4.69007    7.74625
       H    -9.93079   14.01558    4.31269
       O    -9.44092   14.41498    3.61898
      H1   -10.16400   14.79768    3.01608
       H    -6.65064    6.75342   11.76504
       O    -7.32142    6.52330   12.41956
      H1    -6.83316    6.71926   13.23875
       H   -11.85521   13.50550    5.65313
       O   -10.97368   13.84896    5.93894
      H1   -10.52481   13.30479    6.57898
       H    -5.14760    9.05474    7.44041
       O    -5.96005    9.06091    7.91832
      H1    -6.66292    8.66983    7.38843
       H    -9.36043    9.94264    2.95799
       O    -9.92220    9.33790    3.43052
      H1    -9.41671    8.54680    3.51778
       H   -10.13043    6.84813    8.63130
       O    -9.28618    6.61337    9.07902
      H1    -9.27998    5.67706    9.04736
       H   -12.69929    8.41330    9.90143
       O   -11.91076    8.56729    9.40647
      H1   -11.18450    8.55630   10.09081
       H    -2.40483   10.75491    6.87741
       O    -2.46379   10.63233    5.96240
      H1    -3.15614   11.28601    5.66883
       H   -10.67675    4.04648    3.39793
       O   -11.35572    3.87601    2.72991
      H1   -11.51651    2.91414    2.81246
       H   -15.19362    9.62865    5.39369
       O   -14.47689   10.23144    5.12887
      H1   -13.98949    9.70189    4.44320
       H    -6.14796   11.97079    9.62249
       O    -5.53647   11.57464   10.22287
      H1    -5.31525   10.65104    9.96464
       H    -9.48301   12.13859    8.28751
       O    -9.28746   12.36070    7.36111
      H1    -9.46865   11.52798    6.91090
       H    -6.08602    4.13246    5.35740
       O    -5.77772    3.76151    6.16693
      H1    -4.85873    3.75127    5.90598
       H    -9.68148   12.12673   10.97589
       O   -10.00848   11.97051   10.11724
      H1   -10.94227   11.82686   10.36274
       H    -6.66677   10.72214    7.33685
       O    -6.53215   11.59153    6.86485
      H1    -7.39186   11.98675    6.63300
       H    -5.13539    5.53967    3.23222
       O    -5.86667    5.29096    3.86183
      H1    -5.69362    5.93291    4.51550
       H   -12.56407    6.77261    1.61551
       O   -11.84701    6.75409    0.93761
      H1   -11.07901    7.19102    1.35479
       H   -12.82584    4.62930    7.69499
       O   -13.24693    3.76736    7.78741
      H1   -12.86928    3.41099    8.59111
       H   -13.09943   11.95398    9.77990
       O   -12.55718   11.28610   10.19211
      H1   -12.70824   10.43396    9.73575
       H    -3.12795    7.93892    7.64397
       O    -3.21010    8.16472    6.66639
      H1    -2.78387    9.02297    6.56145
       H    -4.12274   13.04099    5.02986
       O    -4.44439   12.16962    4.84993
      H1    -5.06861   12.01192    5.60250

