129
frame 3 | Written by MDAnalysis XYZWriter (release 2.4.3)
       H     8.11934   16.15219    2.44867
       O     7.55546   16.47617    3.15263
      H1     7.07213   15.77812    3.45861
       H     7.51065   12.50305   -2.95376
       O     6.73292   12.65540   -3.47966
      H1     7.14505   12.60148   -4.34577
       H     6.59567   10.57569    3.44639
       O     7.19802   10.44442    2.63901
      H1     6.71746    9.77347    2.06343
       H     7.51457   12.53326   -7.01348
       O     8.07820   12.34462   -6.27170
      H1     7.83901   11.51792   -5.86736
       H     7.59529    9.26918   -6.03492
       O     7.42540    9.79179   -5.19018
      H1     6.49692    9.65727   -4.86217
       H    10.24362   18.47396    1.51217
       O    11.10460   18.60245    1.93948
      H1    10.91884   19.26303    2.62470
       H     1.12212   12.80451   -0.49233
       O     1.68017   12.02894   -0.59678
      H1     2.39563   12.34464   -1.12284
       H     8.99796    9.62787   -2.28712
       O     9.00342    8.87949   -2.98405
      H1     8.61167    9.30454   -3.76954
       H    12.29815   16.92528    2.58963
       O    12.05632   16.02676    2.82270
      H1    12.02425   15.98579    3.81269
       H     8.84537    9.55392   -0.07925
       O     9.01149   10.30833   -0.64581
      H1     8.50847   11.04389   -0.35867
       H     5.15036   15.31361   -3.10547
       O     5.40031   16.12796   -2.56635
      H1     5.81365   16.68633   -3.26623
       H    10.34749   18.54519   -1.70620
       O    10.76823   19.10116   -2.41590
      H1    11.68383   19.03409   -2.24419
       H     2.99082   17.14981   -1.18712
       O     2.89711   17.11522   -2.17494
      H1     3.76628   16.69294   -2.46499
       H     4.44392   14.49781    1.35310
       O     4.66759   15.26783    0.79002
      H1     4.55087   16.09987    1.40273
       H     7.61078   14.76542   -1.25679
       O     8.56134   14.54869   -1.07187
      H1     8.99040   15.25362   -0.58097
       H     8.24077   18.82257   -7.25014
       O     8.31935   18.01810   -6.70061
      H1     8.57007   17.20449   -7.15867
       H     6.08994   18.40218   -2.05765
       O     5.87866   19.28658   -1.64454
      H1     4.95959   19.34764   -2.06662
       H     5.37087    8.39375    0.11787
       O     6.30811    8.70517    0.32214
      H1     6.52266    9.32856   -0.36252
       H     9.63298   12.68384   -6.95703
       O    10.26316   13.00912   -7.60032
      H1    11.06787   13.26985   -7.06489
       H     2.87282   11.61355   -4.97425
       O     3.12838   11.15671   -4.21238
      H1     2.30036   10.71242   -3.94156
       H    14.56003   15.75825    0.11325
       O    14.42289   16.27222   -0.68757
      H1    13.53668   16.06440   -0.96718
       H     8.79985   16.44851    6.01600
       O     9.19708   16.12640    5.20497
      H1     8.43109   16.22868    4.57115
       H     3.82122   13.80258   -4.09180
       O     4.63950   14.14755   -4.36950
      H1     5.35902   13.58308   -3.96019
       H    11.59306   15.35823   -2.18668
       O    11.81296   16.01960   -1.52502
      H1    11.23049   15.93336   -0.75288
       H     5.90749   13.67499    3.40807
       O     6.79558   13.86716    3.84121
      H1     6.67577   13.58227    4.73399
       H    10.53897   15.35297   -4.06244
       O    11.16566   14.65772   -3.68715
      H1    10.55078   13.95740   -3.49809
       H    10.25375   12.16742   -2.60881
       O     9.45451   12.64700   -2.73709
      H1     9.47608   13.38515   -2.13820
       H     6.35290   19.45435    0.22382
       O     6.43618   19.03236    1.08877
      H1     7.03065   19.56600    1.63969
       H     5.49238   18.08989   -5.02236
       O     6.36547   17.82422   -4.63571
      H1     6.91533   17.62517   -5.40321
       H     1.69243   15.69447   -2.36806
       O     1.08470   14.95011   -2.49183
      H1     0.83399   15.00632   -3.43406
       H     8.12782   18.06791    0.02846
       O     8.79958   18.70931   -0.26961
      H1     8.20174   19.43894   -0.59466
       H     4.97127   18.44751    1.68871
       O     4.14289   18.02286    2.02467
      H1     3.53430   18.22029    1.30851
       H     4.39593    8.55051   -4.63977
       O     4.96366    9.19919   -4.24470
      H1     4.35243    9.96066   -4.12529
       H     3.88171   14.19383   -6.16168
       O     3.64396   14.28137   -7.06820
      H1     4.38742   13.86839   -7.55197
       H    10.40189   18.05381   -4.04139
       O    10.22877   17.59037   -4.85243
      H1     9.49908   18.00460   -5.41232
       H    12.51120   12.87387   -0.85973
       O    12.71712   12.44966   -1.69470
      H1    13.71671   12.41821   -1.76412
       H     7.97069   12.62248    1.34880
       O     7.67014   12.41635    0.46620
      H1     8.05370   13.22998   -0.02311
       H     4.40054   13.98610   -1.03919
       O     4.14395   13.23346   -1.59644
      H1     4.84979   12.99250   -2.21125
       H    10.43935   16.05197    1.81587
       O     9.69934   15.82230    1.21176
      H1     9.41369   14.96348    1.58810
       H    12.84667   13.19331    1.45247
       O    11.99674   13.06808    0.94235
      H1    11.77398   12.14742    1.21843
       H     9.45807   13.29014    3.64221
       O     9.48752   13.36654    2.72175
      H1    10.44472   13.21410    2.52521
       H    13.35055   13.63565   -6.22819
       O    12.40880   13.79865   -6.00406
      H1    12.35014   13.79128   -5.06125
       H     5.55161   12.56852    1.69002
       O     4.71855   12.75881    2.12997
      H1     4.04139   12.12418    1.82525

