129
frame 2 | Written by MDAnalysis XYZWriter (release 2.4.3)
       H     6.20978   -8.21611  -13.16509
       O     5.97101   -9.04377  -12.65540
      H1     6.83872   -9.42358  -12.58396
       H     3.49491   -5.53653   -5.47022
       O     3.59769   -4.55922   -5.71062
      H1     3.66342   -4.54241   -6.68649
       H     6.95665   -6.08392  -14.42445
       O     7.09238   -6.66754  -13.64538
      H1     7.82234   -6.25762  -13.15949
       H    10.21491   -8.65604  -10.71000
       O     9.43449   -8.16159  -10.51501
      H1     9.31574   -7.61751  -11.30469
       H    10.73308   -5.90542  -10.49807
       O    11.38668   -6.07494   -9.84617
      H1    11.38175   -7.02476   -9.61659
       H     7.71106   -8.25082   -9.94050
       O     6.89816   -8.54059   -9.44071
      H1     6.12857   -8.14423   -9.93012
       H     3.20235  -11.16543   -5.63843
       O     2.25214  -11.15505   -5.82284
      H1     1.85698  -11.65464   -5.11043
       H     7.73549  -13.73320  -12.41753
       O     6.78148  -13.78330  -12.59554
      H1     6.64348  -14.72587  -12.47999
       H     3.10601  -10.05348   -8.64440
       O     3.39813   -9.14929   -8.52508
      H1     3.48033   -8.72614   -9.38530
       H     1.45674   -8.65193  -12.31252
       O     1.76162   -7.83109  -11.85603
      H1     2.66663   -7.96956  -11.54762
       H     5.67726   -4.96220  -10.61742
       O     4.73324   -5.16477  -10.47558
      H1     4.43454   -4.54851   -9.82150
       H     9.97010  -10.23889  -13.88741
       O    10.10220  -10.24633  -14.89206
      H1     9.23469  -10.38810  -15.28548
       H     6.20936  -12.91044  -10.59371
       O     6.60265  -13.01715   -9.68800
      H1     6.15898  -12.28258   -9.15316
       H     7.29986   -5.35795   -6.38966
       O     7.59774   -4.57754   -6.87397
      H1     6.89336   -3.90324   -6.55747
       H    11.61575  -12.24611   -8.94724
       O    10.72976  -12.63652   -8.87013
      H1    10.82337  -13.60776   -8.87622
       H     6.57829  -14.53872   -8.82686
       O     6.99311  -15.28464   -8.34085
      H1     7.45683  -15.82443   -9.03841
       H    10.67729  -10.43193   -5.97382
       O    10.90380   -9.50114   -5.84822
      H1    10.38763   -9.05985   -6.51689
       H     5.20801  -10.37465   -5.07315
       O     5.06167  -11.03031   -5.72473
      H1     5.43499  -11.84930   -5.47770
       H     2.73411  -12.06212   -8.07141
       O     2.75186  -11.77373   -8.96789
      H1     1.79290  -11.52961   -8.99736
       H     9.81937   -7.30655   -4.22947
       O    10.02864   -8.06924   -3.71819
      H1     9.60781   -8.81483   -4.17079
       H     7.39408   -4.02498   -9.56520
       O     7.38719   -4.49529  -10.39825
      H1     7.34039   -3.83415  -11.11340
       H     3.95757   -7.16292   -4.40223
       O     3.01770   -6.92795   -4.54647
      H1     2.59111   -7.43524   -5.22355
       H     8.33028  -11.34494   -7.28799
       O     9.21208  -11.56172   -7.01265
      H1     9.66109  -11.85781   -7.87038
       H    12.24742   -9.38217   -8.58927
       O    12.07394   -8.43698   -8.64629
      H1    12.93043   -8.04506   -8.58895
       H    10.56352   -4.93115   -8.60453
       O    10.04517   -4.33305   -7.96205
      H1     9.22788   -4.80750   -7.78850
       H     2.53084   -8.46825   -7.02822
       O     1.79874   -8.47317   -6.38967
      H1     1.87250   -9.32940   -5.91954
       H     8.08661   -7.65891   -6.72906
       O     7.21554   -7.36313   -6.67098
      H1     6.89845   -7.48007   -7.57494
       H     3.46171  -14.49538  -12.22826
       O     4.18325  -13.97006  -11.82139
      H1     5.00288  -14.05919  -12.34667
       H     5.39123  -10.16634  -13.88737
       O     5.09933  -10.65463  -14.68023
      H1     4.34847  -11.19581  -14.53792
       H    12.20059   -9.72891  -11.03294
       O    11.57650   -9.14413  -11.51401
      H1    12.17648   -8.55958  -12.04184
       H     6.06873  -10.69639   -7.20565
       O     6.62980  -10.98787   -7.94515
      H1     6.69687  -10.24234   -8.52586
       H     8.50021   -1.35422   -7.36325
       O     8.65766   -1.85678   -8.16636
      H1     9.08061   -2.70270   -7.90625
       H    11.91459   -7.66234  -14.56009
       O    11.02380   -7.51720  -14.94181
      H1    10.64647   -8.32490  -14.58120
       H    10.22720  -13.69188  -12.07818
       O     9.38958  -13.31759  -11.72602
      H1     9.64375  -12.67575  -11.02192
       H     9.49994   -8.11425   -8.70558
       O     9.36772   -8.42365   -7.84390
      H1     8.71508   -9.16407   -7.72829
       H     6.85680   -1.93448  -12.00076
       O     7.15084   -2.75035  -12.53734
      H1     6.35363   -3.03066  -13.10380
       H     9.07289   -9.98371  -11.64206
       O     8.70642  -10.54798  -12.40356
      H1     8.59215  -11.44896  -12.07507
       H     9.72326   -5.00652  -12.30339
       O     9.09197   -5.77912  -12.02252
      H1     8.63736   -5.27852  -11.29716
       H     6.27455   -8.15477   -4.91034
       O     5.51249   -8.43584   -4.31560
      H1     5.78844   -8.25541   -3.37565
       H     4.58536   -6.84462  -10.88362
       O     4.36773   -7.79319  -10.78006
      H1     4.92742   -8.30582  -11.45180
       H     8.04039  -14.54962   -6.92151
       O     8.33934  -14.15298   -6.10501
      H1     8.67718  -13.22246   -6.42404
       H     8.78868  -10.99900   -5.17431
       O     8.65264  -10.97832   -4.21046
      H1     9.01198  -11.83643   -3.99649
       H     3.78125   -3.00522   -8.32053
       O     3.58223   -3.97888   -8.32079
      H1     2.65877   -4.16026   -8.19272

