129
frame 11 | Written by MDAnalysis XYZWriter (release 2.4.3)
       H   -18.68951   -2.76224  -12.07914
       O   -18.25456   -3.33015  -12.76556
      H1   -18.99700   -3.82677  -13.20633
       H   -17.68495  -13.39645   -9.89478
       O   -17.13428  -14.07455  -10.35466
      H1   -16.46311  -14.43229   -9.79417
       H   -17.86309   -0.70781  -14.36478
       O   -17.17861   -0.86099  -13.68471
      H1   -17.23825   -1.74048  -13.29403
       H   -12.63278   -6.05475  -19.31070
       O   -13.39711   -6.67438  -19.20048
      H1   -14.03492   -6.38281  -18.53331
       H   -12.07731  -12.91444  -17.82420
       O   -12.33900  -12.85732  -16.90951
      H1   -11.96593  -11.98402  -16.71384
       H   -14.39043   -2.30032  -11.20164
       O   -13.82936   -3.02973  -11.40359
      H1   -14.27365   -3.38991  -12.21154
       H   -15.76229   -2.05981  -16.00350
       O   -15.18419   -1.29072  -15.99192
      H1   -15.41779   -0.77592  -15.20256
       H   -17.32438   -8.01214  -14.60537
       O   -17.80699   -7.23608  -14.82740
      H1   -17.71926   -6.65857  -14.06632
       H   -10.83307  -10.07514  -12.46013
       O   -11.45177  -10.27282  -13.14297
      H1   -10.99770  -10.29210  -14.02498
       H   -16.40506   -4.14235  -12.62166
       O   -15.61462   -4.59118  -13.01034
      H1   -15.49102   -5.39796  -12.44597
       H   -12.99135   -6.09873  -10.85701
       O   -12.17521   -5.90609  -10.29025
      H1   -12.03026   -4.97496  -10.37601
       H   -18.98038   -0.18771  -16.40816
       O   -18.85704   -1.16867  -16.15517
      H1   -17.97989   -1.43839  -16.34950
       H   -14.49069   -9.40176  -13.85878
       O   -13.73542   -8.78994  -13.75821
      H1   -13.05935   -9.34653  -13.34127
       H   -19.86236   -2.17811  -10.77220
       O   -18.94572   -1.92757  -10.45651
      H1   -18.55338   -2.81341  -10.11319
       H   -15.69551   -4.02756   -8.39247
       O   -15.42861   -4.72931   -9.02145
      H1   -14.78771   -4.31199   -9.59308
       H   -17.82562  -14.12017  -15.45095
       O   -17.01253  -14.69613  -15.50934
      H1   -16.91734  -15.08796  -14.62627
       H   -15.00628   -9.66269  -17.29186
       O   -15.70798  -10.34703  -17.18969
      H1   -15.25727  -11.07945  -16.73414
       H   -18.63637   -6.61096  -16.45098
       O   -19.41347   -6.42751  -17.06295
      H1   -20.01373   -7.16169  -16.90991
       H   -18.07004   -4.80186  -10.92255
       O   -18.05996   -4.35397  -10.08021
      H1   -17.33604   -4.55658   -9.47004
       H   -18.36385  -11.83765  -17.99972
       O   -18.14450  -10.97155  -18.43561
      H1   -17.31798  -10.78955  -18.03636
       H   -14.99446  -12.94648  -12.76292
       O   -15.53079  -12.39551  -13.26409
      H1   -15.14211  -12.42386  -14.17036
       H   -15.49077  -13.42012  -16.17859
       O   -14.92615  -12.67098  -16.02279
      H1   -14.09315  -12.90413  -16.41872
       H   -13.74752   -7.79218   -8.32819
       O   -14.62455   -7.43246   -7.99495
      H1   -14.79151   -6.48544   -8.31660
       H   -10.54994   -6.56589  -16.88534
       O   -10.97350   -7.27430  -16.33290
      H1   -11.87295   -7.12645  -16.40400
       H   -12.32627   -9.19930  -19.46219
       O   -12.30820   -9.59548  -18.58207
      H1   -11.63899  -10.28842  -18.66384
       H   -18.96009  -13.49527  -19.28760
       O   -18.37777  -13.86925  -18.62076
      H1   -18.92706  -14.53031  -18.22869
       H   -15.04161  -11.09018  -10.64120
       O   -15.80066  -10.65937  -11.12727
      H1   -15.68399  -11.04632  -11.99751
       H   -12.42537   -3.14708  -16.39114
       O   -12.41516   -3.92284  -16.97041
      H1   -12.66890   -3.64427  -17.85435
       H   -18.98402   -7.24533  -11.64004
       O   -18.65679   -6.44392  -12.06907
      H1   -19.29518   -6.14726  -12.75478
       H   -17.53151   -8.24792   -8.27999
       O   -18.05821   -8.00900   -7.52157
      H1   -17.52347   -7.37376   -7.05283
       H   -15.14927   -5.42232  -16.75574
       O   -15.41197   -6.26233  -17.14450
      H1   -15.02092   -6.92130  -16.57724
       H   -10.95657   -5.97697  -14.67317
       O   -10.46136   -5.32310  -14.17719
      H1    -9.69697   -5.19043  -14.72185
       H   -16.86994   -4.41948  -16.67062
       O   -16.56328   -3.80842  -15.91848
      H1   -16.52769   -4.37117  -15.14436
       H   -18.73072   -5.22463  -18.37583
       O   -18.00789   -4.76588  -18.81370
      H1   -17.51625   -5.58584  -18.88460
       H   -15.61567   -8.02643   -9.29484
       O   -16.25437   -7.98155   -9.99449
      H1   -16.11321   -8.82033  -10.52696
       H   -18.54318  -13.15015  -13.30072
       O   -18.35352  -12.18534  -13.45126
      H1   -17.39383  -12.26772  -13.40822
       H   -19.38292  -15.22549  -12.24343
       O   -18.56534  -14.67839  -12.41356
      H1   -18.15578  -14.47536  -11.55652
       H   -16.57699   -7.10969  -18.44995
       O   -17.04134   -7.32648  -19.21828
      H1   -17.81316   -7.85960  -18.93756
       H   -17.12753  -10.21658  -14.15003
       O   -16.53427   -9.56903  -14.53533
      H1   -16.30635   -9.97348  -15.40375
       H   -12.00622   -7.90746   -9.36901
       O   -12.51046   -8.64377   -8.93309
      H1   -12.46881   -9.37758   -9.54709
       H   -13.25036  -12.36858   -9.88532
       O   -13.47511  -11.40271   -9.78868
      H1   -13.64143  -11.34136   -8.83363
       H   -12.93824   -8.97463  -17.02976
       O   -13.53739   -8.37275  -16.49751
      H1   -13.57758   -8.73431  -15.56287
       H   -14.85854   -7.43600  -10.86732
       O   -14.34788   -6.88248  -11.46994
      H1   -14.19300   -7.44646  -12.24303

