129
frame 4 | Written by MDAnalysis XYZWriter (release 2.4.3)
       H    16.29141   -1.04432   12.89210
       O    16.09719   -1.66602   13.64086
      H1    15.58241   -1.05340   14.25362
       H    14.84155    5.52131   17.79307
       O    14.48306    5.30212   16.87025
      H1    14.41735    6.19542   16.45575
       H    10.76900    7.02464   19.12208
       O    11.24883    6.44701   19.76087
      H1    11.47032    5.64832   19.28672
       H    10.14734   -4.02027   16.46319
       O    10.71020   -4.40909   17.18014
      H1    10.36801   -5.28313   17.26685
       H    12.96592    4.68211   17.57262
       O    12.10165    4.53067   17.99093
      H1    11.77118    3.59758   17.94967
       H    10.61895    6.07177   16.56341
       O     9.76943    6.41417   16.22238
      H1     9.22939    5.60677   16.06790
       H    17.12164   -1.72176   18.05703
       O    16.27719   -2.05474   17.71236
      H1    15.69730   -1.66831   18.40659
       H     7.98045   -1.34651   11.40185
       O     7.37855   -0.99764   10.71032
      H1     6.79052   -1.73960   10.61544
       H     4.82433    4.37941   17.93516
       O     4.38810    5.18567   18.34836
      H1     4.25755    5.81195   17.63204
       H    16.57808    0.43638   15.98769
       O    15.82958   -0.16103   15.93397
      H1    15.91951   -0.87839   16.61061
       H    11.06470    3.09159   14.77950
       O    11.54857    2.37531   15.17881
      H1    12.32713    2.23892   14.68349
       H    13.56750    1.98895   13.51573
       O    13.41739    1.05779   13.32061
      H1    12.70201    1.03071   12.67301
       H    14.83649    3.38657   13.22749
       O    14.03413    3.66834   13.70161
      H1    14.22481    3.77351   14.64422
       H    12.59688   -4.24865   13.84453
       O    11.88635   -3.66237   13.48576
      H1    12.44284   -3.21659   12.84398
       H     5.24893   -3.50163   16.20441
       O     5.97958   -3.66447   15.53227
      H1     5.50173   -3.71852   14.70835
       H     4.76309    3.49912   14.51713
       O     4.76320    2.66915   15.04462
      H1     3.91176    2.62836   15.47772
       H    12.53618   -1.69615   14.44735
       O    12.95447   -1.42772   15.30537
      H1    13.25332   -0.52619   15.06250
       H     4.15048   -1.62259   17.49335
       O     4.29050   -0.79964   17.01338
      H1     5.16637   -0.85971   16.63084
       H    13.37138   -5.53928   19.94548
       O    14.01644   -6.12346   19.43444
      H1    14.09419   -5.72136   18.53543
       H    10.17572    0.94887   14.37334
       O     9.75747    0.10928   14.40095
      H1     8.81139    0.34534   14.13393
       H     6.31181    2.09182   13.98078
       O     7.19556    1.99558   13.55144
      H1     6.88453    2.05970   12.63900
       H     2.55232    2.54048   19.67439
       O     3.18811    2.03553   19.13040
      H1     3.94743    2.62604   19.13649
       H     7.88881    6.67862   15.29993
       O     6.94866    6.58486   15.50357
      H1     6.66386    5.83988   14.99117
       H     8.02371   -3.53516   18.14507
       O     8.44046   -4.28292   18.60458
      H1     9.38918   -4.25391   18.46143
       H    14.96886    2.53424   18.31007
       O    15.43303    2.99060   19.01634
      H1    16.35387    2.68958   19.03444
       H    11.89297   -3.04446   17.50144
       O    12.10429   -2.11181   17.72006
      H1    12.49460   -1.71185   16.83406
       H     8.09576   -3.59318   12.27221
       O     8.60575   -2.81628   12.53211
      H1     8.69518   -2.88415   13.49899
       H    11.99964   -0.26112   11.36104
       O    11.72560    0.64333   11.35510
      H1    10.94246    0.63048   11.88447
       H     5.62421    2.38941   17.07026
       O     5.76923    2.93111   17.85812
      H1     6.68663    2.84861   18.12992
       H    15.48373   -3.66525   17.48476
       O    15.27785   -4.59817   17.28133
      H1    16.12317   -5.05905   17.04959
       H     9.07715    4.13216   14.33825
       O     8.48568    3.82566   14.98203
      H1     8.04875    3.14200   14.45491
       H    10.13426    2.19403   18.98894
       O    10.90441    1.78705   18.56102
      H1    11.31184    1.27732   19.29022
       H     8.18171   -1.52900   17.34825
       O     7.42223   -2.16837   17.53075
      H1     7.28633   -2.66908   16.69666
       H     3.51241   -4.04068   17.69372
       O     4.25848   -3.43244   17.58147
      H1     4.72950   -3.38641   18.41950
       H    14.45203    1.07847   16.41287
       O    14.14194    2.02205   16.47386
      H1    13.17803    2.02354   16.56051
       H    14.35433   -1.85477   20.02764
       O    14.16629   -1.26912   19.29178
      H1    13.57428   -1.81870   18.71302
       H     5.82453    6.12947   18.76745
       O     6.68070    6.51081   18.50097
      H1     6.74428    6.29146   17.57768
       H    14.66526   -4.58261   15.30787
       O    14.46699   -4.27770   14.42533
      H1    15.02601   -3.51416   14.23298
       H    12.49443   -2.26368   10.50564
       O    12.82957   -1.85310   11.30701
      H1    13.83691   -1.87094   11.25380
       H    10.58248    3.88395   12.25607
       O    10.83643    4.47151   13.01783
      H1    11.77156    4.62425   12.88955
       H     9.78586   -0.00820   16.08633
       O     9.75887   -0.30304   17.01368
      H1    10.39761    0.34278   17.34412
       H     9.04982    3.63446   10.60132
       O     9.46736    2.85824   11.11885
      H1     9.73601    2.11901   10.52951
       H     9.99499   -3.52473   14.66041
       O     9.38225   -3.07409   15.25598
      H1     9.76637   -2.19126   15.43131

