129
frame 9 | Written by MDAnalysis XYZWriter (release 2.4.3)
       H    -4.76678   -3.07210  -11.80925
       O    -4.11796   -3.55754  -11.29535
      H1    -3.26950   -3.19237  -11.56189
       H     3.70597   -4.42809   -4.95695
       O     4.56202   -4.72316   -5.33804
      H1     4.28132   -5.54911   -5.80629
       H    -4.66907   -2.41065   -6.28206
       O    -4.26943   -1.79703   -6.82948
      H1    -4.72993   -1.94208   -7.66453
       H    -0.90558   -8.14478   -2.89625
       O    -0.28291   -8.25121   -3.70498
      H1    -0.81597   -8.46678   -4.43561
       H    -0.53698   -2.69849   -4.43797
       O    -1.32231   -2.42747   -3.94797
      H1    -1.11066   -1.51846   -3.68478
       H    -3.87980   -0.03137   -6.18550
       O    -4.04588    0.84740   -5.86016
      H1    -3.34477    1.08843   -5.22080
       H    -2.47205   -4.87884   -4.05464
       O    -2.40768   -5.39153   -4.85559
      H1    -2.10617   -4.74751   -5.55362
       H     0.56273    1.32014   -5.52949
       O     0.66143    2.27538   -5.52937
      H1    -0.14393    2.55472   -5.99691
       H     3.56565   -4.47855   -9.31638
       O     3.02223   -5.01870   -9.95964
      H1     3.59084   -5.79989   -9.97121
       H    -4.25275   -2.98694   -2.04405
       O    -3.71529   -3.54289   -2.60933
      H1    -3.05382   -2.92749   -3.06238
       H     1.60409   -5.44941   -4.91615
       O     1.96852   -4.70122   -4.45238
      H1     2.16955   -5.13136   -3.60431
       H    -1.19057   -2.85467   -8.69030
       O    -0.77821   -2.08167   -9.20255
      H1    -1.20469   -1.26777   -8.90621
       H    -1.61829   -6.33461   -9.26550
       O    -2.44742   -6.76468   -9.60221
      H1    -3.18280   -6.12854   -9.67382
       H     1.10849   -3.54918   -5.65636
       O     0.50962   -2.91674   -6.16665
      H1     0.76584   -3.03577   -7.10193
       H     0.95099   -5.48456   -8.94987
       O     0.06322   -5.66128   -8.68231
      H1     0.18505   -5.95452   -7.73682
       H     5.34388   -3.10215   -8.39341
       O     4.48182   -3.45462   -8.12531
      H1     3.77269   -2.84299   -8.47691
       H    -8.97348   -5.39260   -6.19044
       O    -8.11062   -4.99525   -5.98555
      H1    -7.47283   -5.20010   -6.70219
       H     2.27149   -1.00250   -4.24244
       O     1.45946   -0.71738   -4.75807
      H1     1.19972   -1.51398   -5.28035
       H    -0.14803    2.22906   -8.70413
       O     0.15213    2.20124   -9.64225
      H1    -0.60279    2.01600  -10.21511
       H    -1.16515   -3.11271   -6.77742
       O    -1.89885   -3.43282   -7.32927
      H1    -2.78933   -3.18199   -7.01491
       H    -1.52397    1.79004   -4.11809
       O    -2.23845    2.32069   -4.48109
      H1    -3.09938    2.24979   -4.00350
       H    -2.46486    0.27929   -2.21035
       O    -1.53273    0.11129   -2.35818
      H1    -1.01640    0.91263   -2.21721
       H     1.78919   -3.02545  -12.22891
       O     2.68010   -3.10214  -11.88173
      H1     2.61308   -3.86851  -11.33383
       H     1.29837    0.96176  -10.14283
       O     1.79967    0.19531  -10.45769
      H1     2.67609    0.58263  -10.62862
       H    -5.80712   -5.30789   -8.42443
       O    -6.05424   -5.27674   -7.45671
      H1    -5.56492   -6.00985   -7.03373
       H    -2.07055   -8.66981   -9.02101
       O    -1.83766   -9.52590   -8.55345
      H1    -1.98041   -9.20077   -7.66260
       H     1.15116   -0.52046  -12.13377
       O     0.69428   -1.03719  -12.82385
      H1    -0.02605   -1.49944  -12.40824
       H    -6.50810   -0.40299   -3.69521
       O    -6.15781    0.47462   -3.85881
      H1    -5.59785    0.49860   -4.67498
       H    -2.52002    1.42119  -10.15104
       O    -2.51106    2.01013  -10.94999
      H1    -3.46192    2.17497  -11.16189
       H    -2.42714    0.51811   -8.21162
       O    -2.39432    0.02213   -9.04044
      H1    -3.23157   -0.47033   -9.17591
       H    -4.81008   -4.91823  -10.55011
       O    -5.30124   -5.68782  -10.26433
      H1    -5.43001   -6.17389  -11.10868
       H    -5.18925   -7.45959   -5.51779
       O    -4.41210   -7.18130   -5.98359
      H1    -3.85536   -6.61664   -5.41547
       H    -1.44511   -4.54429   -0.39157
       O    -2.13491   -5.06681   -0.91829
      H1    -2.56807   -4.36186   -1.45685
       H    -1.31572   -2.51663  -10.79918
       O    -1.60956   -2.58695  -11.74127
      H1    -1.26688   -3.47321  -12.14826
       H    -5.54452   -0.98155  -10.25719
       O    -4.88018   -1.30272   -9.65467
      H1    -4.52402   -2.10558  -10.06464
       H     0.60731   -7.16092   -5.98037
       O     0.36360   -6.26382   -5.98122
      H1    -0.43067   -6.11834   -5.47537
       H    -5.11881   -7.89329   -9.31391
       O    -5.19084   -8.54578   -8.61733
      H1    -4.60882   -8.28006   -7.90772
       H    -1.44822   -7.02791  -11.21528
       O    -1.15634   -7.20561  -12.11996
      H1    -1.43925   -8.09156  -12.46092
       H    -0.65970   -5.55844  -13.33069
       O    -0.46499   -4.62392  -13.15536
      H1     0.39101   -4.37963  -13.44044
       H    -2.67255   -9.88449   -5.08773
       O    -2.40230   -9.36502   -5.86661
      H1    -2.91416   -8.57891   -5.70067
       H    -2.18093    2.09785   -6.77463
       O    -1.42550    2.26132   -7.36494
      H1    -1.59233    3.09782   -7.65163
       H     2.56233   -1.30148   -8.27371
       O     2.24641   -2.21092   -8.52184
      H1     1.84243   -2.10786   -9.38131
       H    -5.64976   -4.44858   -5.38377
       O    -5.43999   -3.66974   -4.86634
      H1    -4.76142   -3.97891   -4.25851

