129
frame 2 | Written by MDAnalysis XYZWriter (release 2.4.3)
       H     3.50619  -17.82043  -13.76975
       O     3.45117  -18.47937  -14.48559
      H1     3.98160  -19.25838  -14.38451
       H    -1.71867  -16.33277  -10.51793
       O    -2.67108  -16.27944  -10.29739
      H1    -2.75435  -15.33999  -10.40869
       H     0.68629  -11.84506   -6.62348
       O     0.11390  -12.39833   -7.15642
      H1    -0.42586  -12.96335   -6.55831
       H    -4.75844  -11.55984  -15.73784
       O    -4.25963  -12.37374  -15.37962
      H1    -3.78703  -12.83481  -16.12569
       H     0.60309  -18.89787  -15.91714
       O     0.89187  -18.71168  -14.97529
      H1     1.88771  -18.62814  -14.94331
       H     0.68796  -10.84569  -11.63590
       O     0.87721  -10.39506  -12.49987
      H1     0.69729  -10.99691  -13.19197
       H    -4.74353  -17.77556  -16.02731
       O    -3.97400  -17.21377  -16.00339
      H1    -3.48967  -17.36434  -15.20563
       H     0.46073   -7.30224  -11.11112
       O    -0.26014   -6.75830  -10.63341
      H1    -0.64879   -6.31623  -11.40532
       H    -6.19789  -15.16583  -11.04811
       O    -5.54312  -14.45467  -11.08652
      H1    -5.80434  -14.02834  -11.88919
       H     3.10601  -10.05348   -8.64440
       O     3.39813   -9.14929   -8.52508
      H1     3.48033   -8.72614   -9.38530
       H     1.45674   -8.65193  -12.31252
       O     1.76162   -7.83109  -11.85603
      H1     2.66663   -7.96956  -11.54762
       H    -2.93372  -16.90644  -12.98110
       O    -2.33454  -17.16749  -13.68419
      H1    -1.70592  -17.84101  -13.36667
       H     1.91449  -12.42335  -17.05237
       O     2.48626  -11.81324  -17.51517
      H1     2.76127  -11.20068  -16.82862
       H     0.03990  -15.31057  -13.61332
       O     0.42994  -15.56765  -14.48487
      H1     0.33663  -16.51705  -14.57523
       H     1.52710  -14.67988  -17.29592
       O     2.00501  -15.24897  -17.93341
      H1     2.92116  -14.93942  -18.07802
       H     2.49022  -18.87615  -11.37547
       O     2.42310  -17.92024  -11.14432
      H1     2.68212  -17.42964  -11.91058
       H     2.73411  -12.06212   -8.07141
       O     2.75186  -11.77373   -8.96789
      H1     1.79290  -11.52961   -8.99736
       H    -5.34476  -12.84457  -13.74240
       O    -6.08862  -12.88289  -13.09754
      H1    -6.08615  -12.00909  -12.65227
       H    -2.31071  -13.50597  -17.81631
       O    -3.00194  -14.06519  -17.40342
      H1    -2.55409  -14.95969  -17.40281
       H    -4.18636  -13.52261  -10.36832
       O    -3.32240  -13.13108  -10.15228
      H1    -3.44225  -12.85324   -9.21934
       H     0.23070  -14.39492  -15.70022
       O     0.65000  -13.67388  -16.25028
      H1    -0.12275  -13.23084  -16.63352
       H     0.01061  -13.35355  -11.98963
       O    -0.00688  -13.18042  -12.93023
      H1    -0.92192  -12.72932  -13.12846
       H    -0.52972   -9.07339  -14.00431
       O    -0.84986   -8.31090  -13.52964
      H1    -0.95590   -8.68949  -12.64102
       H    -0.92516  -11.06019  -10.31278
       O     0.01470  -11.29048  -10.10167
      H1     0.11192  -12.22619  -10.13523
       H    -3.82069   -7.46169  -14.41091
       O    -3.43649   -8.32775  -14.34363
      H1    -2.52450   -8.10192  -14.02551
       H     3.36106  -15.65751  -13.79336
       O     2.71119  -16.09602  -13.23415
      H1     1.88206  -15.86368  -13.70079
       H    -2.51493  -15.49076   -6.64149
       O    -1.82919  -16.14291   -6.39551
      H1    -1.10328  -15.82636   -6.88349
       H     3.46171  -14.49538  -12.22826
       O     4.18325  -13.97006  -11.82139
      H1     5.00288  -14.05919  -12.34667
       H    -3.03246  -12.16604   -7.12745
       O    -3.85610  -12.47637   -7.51601
      H1    -4.47140  -11.72072   -7.54410
       H    -0.87200  -10.83516   -8.01544
       O    -1.70948  -10.39305   -7.76376
      H1    -1.73107  -10.16668   -6.81348
       H     5.39123  -10.16634  -13.88737
       O     5.09933  -10.65463  -14.68023
      H1     4.34847  -11.19581  -14.53792
       H    -0.54338  -16.66802  -17.44332
       O    -1.43826  -16.30941  -17.51459
      H1    -2.04709  -16.73829  -16.90753
       H     0.78925  -17.74936  -10.47361
       O     0.17741  -17.61387   -9.68782
      H1     0.41469  -18.26527   -9.00762
       H    -3.30954  -10.04662  -11.13417
       O    -2.52003  -10.71253  -11.11906
      H1    -2.96253  -11.55047  -10.87175
       H    -1.11830  -19.81865  -12.96319
       O    -0.64022  -19.01529  -12.89546
      H1     0.06003  -19.05932  -13.57571
       H     1.29982  -15.54723   -7.54409
       O     0.41989  -15.52837   -7.95165
      H1     0.36788  -16.20164   -8.63962
       H     1.86354  -13.49917  -10.37705
       O     1.00123  -13.93490  -10.42814
      H1     0.70006  -14.29720   -9.56330
       H     4.12080  -14.93559   -9.50875
       O     4.22531  -15.48675   -8.68684
      H1     5.17249  -15.45546   -8.50002
       H    -3.04078  -12.08973  -14.17176
       O    -2.31963  -11.72932  -13.64582
      H1    -2.63672  -11.39956  -12.77924
       H    -4.07284  -16.64621   -9.07731
       O    -4.74529  -17.07356   -8.56383
      H1    -5.50448  -16.45963   -8.38105
       H    -1.62828   -7.56257   -9.93058
       O    -2.28588   -7.71848   -9.20002
      H1    -2.06172   -8.63260   -8.91892
       H    -1.36337  -10.82692  -14.79963
       O    -0.49644  -10.62120  -15.19114
      H1    -0.56511  -10.93301  -16.08983
       H     2.95601  -12.94642  -13.46057
       O     3.10609  -12.63319  -14.32583
      H1     2.20595  -12.75189  -14.66624

