129
frame 8 | Written by MDAnalysis XYZWriter (release 2.4.3)
       H    14.16877  -13.33383    3.44933
       O    13.54433  -12.90718    2.88452
      H1    12.82759  -13.54210    2.61047
       H    16.85764  -14.54294   -0.23496
       O    16.98661  -13.69347   -0.63518
      H1    16.88193  -13.87817   -1.61232
       H    13.61962  -18.72712   10.73505
       O    13.72153  -19.22101   11.57219
      H1    13.51849  -20.12511   11.42648
       H    11.31477  -14.40646    1.46708
       O    11.66948  -14.66367    2.34127
      H1    12.07512  -15.56108    2.34982
       H    18.60604  -13.11651   -0.31070
       O    19.46277  -12.66588   -0.34186
      H1    19.63223  -12.32945    0.51930
       H    13.99358  -16.55174   -2.43734
       O    13.44468  -15.76123   -2.63026
      H1    13.08491  -16.17078   -3.42188
       H    14.41239  -12.30780    1.43363
       O    14.93588  -12.08922    0.60899
      H1    15.70475  -12.69211    0.81470
       H     8.48001  -16.19568   -0.53534
       O     8.86562  -15.52120   -0.00655
      H1     8.66752  -15.83604    0.87470
       H    18.05569  -11.89668    3.41423
       O    17.44176  -11.70442    4.11613
      H1    17.10070  -10.82601    3.90693
       H    10.59653  -18.21327   -0.03824
       O    10.16488  -19.02533    0.23300
      H1     9.25511  -18.89965   -0.12743
       H    19.08675  -12.79714    8.13589
       O    18.35255  -13.33141    8.39448
      H1    18.75251  -14.06323    8.88159
       H    15.49019  -13.70594    5.35857
       O    15.83348  -13.72660    4.47558
      H1    16.50826  -13.01570    4.36024
       H    19.30997  -15.27233    5.27703
       O    19.58668  -15.16766    6.19957
      H1    19.16726  -15.88548    6.67613
       H    15.03884  -10.42745    1.09331
       O    15.05764   -9.46284    0.97674
      H1    15.31113   -9.09211    1.89708
       H    18.48037  -18.66395    1.93533
       O    18.29414  -19.46912    2.46966
      H1    17.49783  -19.78079    2.04287
       H    15.77372  -11.55789    9.28723
       O    15.02919  -11.55424    8.66255
      H1    14.41705  -12.15467    9.06445
       H     8.35703  -13.08991    2.86414
       O     7.92871  -13.92270    2.69211
      H1     8.61343  -14.57623    2.82283
       H    12.67289  -11.21912    3.40366
       O    11.89950  -10.62937    3.38947
      H1    11.69921  -10.53084    4.30139
       H    14.49432  -18.43870   -1.63201
       O    15.00571  -17.63748   -1.72374
      H1    15.50975  -17.37242   -0.92397
       H    14.01605  -12.94345   -0.72795
       O    13.32434  -13.17890   -1.38059
      H1    13.42958  -14.09862   -1.60621
       H     9.79478  -16.53052    9.01749
       O     9.84359  -16.72552    9.99476
      H1     9.10192  -16.22653   10.33416
       H    19.59880  -11.66025    5.98903
       O    18.91580  -11.08666    6.34720
      H1    18.13260  -11.28878    5.79985
       H    15.07181  -13.02693    7.36811
       O    14.77781  -13.85632    6.97455
      H1    15.04152  -14.59258    7.60055
       H    16.62879  -18.48624    8.66498
       O    17.08687  -19.29480    9.02064
      H1    16.81509  -19.33311    9.94513
       H    11.97393  -14.39266    8.89834
       O    11.82200  -14.12139    8.01095
      H1    12.69787  -14.03592    7.61201
       H    17.47703  -16.56478    4.94588
       O    16.84430  -16.16726    4.23737
      H1    16.59822  -15.27360    4.57131
       H    18.59786  -18.49605    9.59048
       O    19.39241  -18.01982    9.97950
      H1    19.16390  -18.01467   10.91326
       H    12.95500  -16.61192   10.06374
       O    13.58850  -17.17999    9.62631
      H1    13.15906  -17.87970    9.04953
       H    11.83600  -16.03966   -1.22426
       O    11.29827  -16.60486   -0.60516
      H1    10.50415  -16.03757   -0.50707
       H    19.61551  -18.72897    5.09025
       O    18.70231  -18.31601    5.13881
      H1    18.43604  -18.36081    4.20176
       H    15.02063  -19.04064    5.11013
       O    15.40166  -19.45742    5.94481
      H1    14.66927  -19.83267    6.46707
       H    17.40186  -16.77181    0.52381
       O    16.57083  -16.33768    0.31712
      H1    16.23879  -16.16673    1.24687
       H    18.88362  -16.04527   10.05359
       O    18.85326  -15.10629   10.24170
      H1    18.01439  -14.94044   10.66325
       H    17.03383  -16.44084    7.75794
       O    17.89075  -16.86439    7.67473
      H1    17.76479  -17.76998    7.39219
       H     9.98808  -18.70905    4.76143
       O     9.18731  -18.16319    4.71790
      H1     9.23274  -17.74854    5.57436
       H    14.04648  -17.75806    3.16098
       O    14.80837  -17.98205    3.80325
      H1    15.36966  -17.23874    3.93304
       H    12.13956  -17.38118    1.51165
       O    12.33447  -17.54375    2.41030
      H1    11.46755  -17.52112    2.82756
       H    19.89880  -17.23112    0.67837
       O    19.02992  -17.59293    0.76212
      H1    19.01544  -18.30538    0.14062
       H    16.53179  -15.25902    9.41782
       O    15.73352  -15.46311    8.99801
      H1    15.21574  -16.10234    9.46749
       H    10.74835  -12.21148    0.20247
       O    11.02946  -13.11071   -0.01182
      H1    11.93242  -13.05961   -0.40431
       H     9.72868  -18.11000    1.97456
       O     9.33667  -17.29848    2.27769
      H1     9.20438  -17.33683    3.25329
       H    16.37436  -17.29156   -4.21589
       O    16.93911  -16.95175   -3.47207
      H1    16.56261  -17.23920   -2.65636
       H     8.62818  -16.70756    7.43443
       O     9.53547  -16.76127    7.23862
      H1     9.76041  -15.83009    6.99064

