129
frame 1 | Written by MDAnalysis XYZWriter (release 2.4.3)
       H    -5.75142   13.11015   15.81154
       O    -5.42778   13.80362   16.48960
      H1    -6.16882   14.37513   16.45599
       H    -6.86047   11.54020   14.47769
       O    -6.71152   12.50018   14.47858
      H1    -7.52859   12.93906   14.70871
       H    -9.59259   13.99568   15.36860
       O    -8.76279   14.34238   15.09128
      H1    -8.70375   15.24758   15.39978
       H   -10.94733    8.31248    9.77606
       O   -10.81608    8.68379   10.70589
      H1   -11.32910    8.10350   11.34901
       H    -9.75866   16.83536   17.34573
       O    -9.29076   16.55601   16.54033
      H1    -8.87657   17.24040   15.99614
       H   -11.41296   10.09197    9.77099
       O   -11.99100   10.68960    9.25974
      H1   -11.45608   11.45947    9.00701
       H   -12.32067    8.47599   13.01915
       O   -12.79697    8.02213   12.33020
      H1   -12.91819    7.08412   12.64551
       H   -14.38240   12.46218   16.19847
       O   -13.88788   13.07237   15.59753
      H1   -14.54708   13.31851   14.90309
       H   -13.62441   10.41927    9.01422
       O   -14.56953   10.37832    8.86033
      H1   -15.01304   11.27852    9.00317
       H   -14.64020   15.09839   14.04955
       O   -15.55159   14.77402   13.91001
      H1   -16.09991   14.87216   14.69493
       H    -7.31381   17.94128   10.83809
       O    -7.76097   17.05150   10.71367
      H1    -7.35197   16.34289   11.28781
       H   -10.95141   16.97433   10.07823
       O   -10.26280   17.45599    9.61223
      H1    -9.39403   17.20953    9.92762
       H    -7.83753   12.27804    6.68721
       O    -7.77871   13.13192    7.07901
      H1    -8.60748   13.57411    6.88271
       H   -13.40111   16.46950    6.55795
       O   -12.53785   16.81688    6.22303
      H1   -12.02481   16.01493    6.24754
       H    -5.92617   10.12674   10.66301
       O    -5.97998   10.95096   11.14334
      H1    -5.87698   10.70716   12.07354
       H    -8.05597   14.73288   12.46747
       O    -7.24788   14.97180   12.03246
      H1    -7.00076   14.30282   11.37885
       H   -10.61442   11.98453   16.79765
       O   -10.91626   12.53910   16.09960
      H1   -11.83186   12.21912   15.91256
       H   -13.98240   10.80399   12.04304
       O   -13.25327   11.46369   12.07794
      H1   -12.87203   11.54167   11.17588
       H   -10.50259   13.83378   11.88392
       O   -11.34117   14.20010   12.09593
      H1   -11.76282   13.35109   12.32833
       H   -13.99884   10.49634   14.95786
       O   -13.41763   10.12301   15.59096
      H1   -14.10821    9.58144   16.06882
       H   -14.35289   15.04264    7.83312
       O   -14.73913   15.40906    7.01924
      H1   -14.86477   14.63960    6.43178
       H   -13.27733   14.73663    9.58413
       O   -13.45385   13.98670    9.07511
      H1   -14.21095   13.51789    9.49975
       H   -12.07633   15.35363   10.90587
       O   -12.47194   16.06616   10.39854
      H1   -12.81732   16.63350   11.10260
       H   -12.59937   16.02600   15.30580
       O   -12.87174   15.87788   14.33403
      H1   -12.45003   15.05114   14.08686
       H    -9.82407   11.98066   10.96329
       O    -9.86843   12.39581   10.09971
      H1    -8.96302   12.74238   10.01291
       H   -11.61727   13.52668   17.53819
       O   -11.92964   13.72289   18.44780
      H1   -11.14927   13.98921   18.95654
       H   -15.92905    9.04906   11.88705
       O   -15.22817    9.49161   12.41470
      H1   -14.41606    8.99000   12.18998
       H    -8.70414    9.07618   15.62335
       O    -8.57649    8.18414   15.96686
      H1    -9.38502    8.07773   16.48974
       H   -10.29903   15.89663    7.70874
       O   -10.05086   15.36786    6.93902
      H1    -9.50892   15.94135    6.37369
       H    -9.56002   10.92269   13.99516
       O    -9.27074   10.76211   14.91559
      H1    -9.84830   11.38852   15.37760
       H    -5.45440   15.38039   13.73692
       O    -4.55103   15.47842   14.14985
      H1    -4.52450   14.73320   14.80537
       H    -9.13730   17.05665   12.04869
       O    -9.61700   16.85581   12.89880
      H1   -10.57494   17.05842   12.74462
       H   -15.53291   15.51050   12.28602
       O   -15.45035   15.40583   11.26987
      H1   -15.43402   16.36616   11.04309
       H   -15.87966   17.72897    9.64616
       O   -15.20138   17.78949   10.29650
      H1   -14.40533   17.63552    9.78781
       H   -12.19254    9.09164   15.09375
       O   -11.36868    8.82672   14.57482
      H1   -10.75334    9.47510   14.93048
       H    -8.75239   17.95210   13.97231
       O    -8.29631   18.46821   14.63419
      H1    -7.36291   18.38036   14.50793
       H    -7.33424   12.94743    8.71907
       O    -7.14727   13.06447    9.67642
      H1    -6.98881   12.13302   10.03116
       H    -4.85311   15.13257    8.56953
       O    -5.69731   15.64076    8.74953
      H1    -6.39019   15.04922    9.03728
       H   -10.30885   10.98170    6.98764
       O   -10.12331   10.79944    6.06139
      H1   -10.29806    9.83174    6.12227
       H   -12.98281   17.40434   13.34638
       O   -13.02933   17.87314   12.45323
      H1   -12.65746   18.78854   12.52557
       H   -10.28427   10.15958   11.84895
       O   -10.57068   11.01796   12.33087
      H1   -11.57454   11.02719   12.26872
       H   -12.18223   13.41956    8.12955
       O   -11.62568   13.13416    7.38240
      H1   -11.10465   13.89339    7.16182
       H   -16.68902   12.86943    9.64179
       O   -15.94974   12.62685    9.09846
      H1   -16.15341   12.77264    8.14531

