129
frame 1 | Written by MDAnalysis XYZWriter (release 2.4.3)
       H    12.76531    2.65091  -17.52623
       O    13.61649    3.16600  -17.60052
      H1    14.30255    2.50472  -17.65622
       H    16.64197   -2.22401  -15.18197
       O    16.78397   -1.89049  -14.28430
      H1    17.52575   -1.24298  -14.21932
       H    12.99090   -1.07084  -18.03341
       O    13.79884   -0.80248  -17.57778
      H1    14.44344   -1.52547  -17.75761
       H     6.87055   -0.48008  -18.44625
       O     6.11380   -0.11058  -18.92965
      H1     5.51410    0.21013  -18.21821
       H    13.69948    1.27361   -9.96825
       O    13.60949    0.64736   -9.25311
      H1    13.12464   -0.04873   -9.71965
       H    11.09816    8.33823  -15.84655
       O    12.00166    8.40101  -16.15396
      H1    11.99917    8.25663  -17.10644
       H    12.48109    5.02399  -14.85305
       O    12.68598    4.45535  -14.12776
      H1    12.97645    5.03811  -13.45204
       H    10.33014   -1.45568  -18.66835
       O    11.10412   -1.48515  -18.03007
      H1    11.33593   -2.45638  -18.16588
       H     8.46184   -1.07564  -16.13058
       O     8.14455   -0.30874  -16.65012
      H1     8.02966    0.31553  -15.94654
       H    11.92739   -4.07745  -14.81698
       O    12.19891   -4.78285  -15.37630
      H1    11.88590   -5.58904  -14.88790
       H     9.67460    6.21254  -18.49382
       O    10.37617    6.06522  -17.75489
      H1    11.18400    5.97845  -18.23507
       H     5.84701    0.88665  -13.01120
       O     5.49507    0.11290  -13.50899
      H1     6.23653   -0.31291  -13.92158
       H     9.53426    5.88510  -13.49680
       O     9.69247    6.62005  -12.90504
      H1     9.58926    7.39367  -13.47858
       H    10.00747   -2.73452  -11.91233
       O    10.36182   -3.49328  -12.35474
      H1    10.26109   -3.28361  -13.32072
       H     8.27463    4.61047  -14.98645
       O     9.10232    4.57256  -14.51877
      H1     9.41401    3.69928  -14.65161
       H    16.77475   -1.92502  -17.09302
       O    15.88255   -2.19142  -16.86435
      H1    15.97157   -3.17937  -16.73132
       H    13.38218   -1.10284  -14.28453
       O    12.78610   -1.41024  -14.95435
      H1    13.30125   -1.24349  -15.77039
       H     9.63974   -1.84059  -14.41854
       O    10.29999   -2.33243  -14.86728
      H1    11.02077   -1.71380  -14.99509
       H     5.66281    2.45102  -11.16170
       O     6.21585    2.43881  -11.93640
      H1     7.07338    2.68949  -11.50987
       H    13.19654   -1.36949  -11.28976
       O    12.59030   -1.52158  -10.45811
      H1    11.65576   -1.35256  -10.66691
       H     7.70750    6.94784  -18.71430
       O     7.33934    6.84671  -17.82364
      H1     8.10047    7.10188  -17.25363
       H     9.01815    0.92115  -18.07254
       O     9.37807    1.48690  -18.77968
      H1     8.97767    2.32181  -18.65821
       H    13.56921    4.80181  -18.14924
       O    13.57511    5.79421  -18.02542
      H1    13.92816    6.23493  -18.78135
       H    17.25126    2.82791  -11.86803
       O    16.34280    3.12661  -11.73680
      H1    16.34857    4.08634  -11.88897
       H     9.07745    3.86253  -11.89474
       O     8.75320    3.21127  -11.26767
      H1     8.74381    3.73480  -10.40186
       H     7.28983    5.13108  -17.37617
       O     7.31033    4.29456  -16.88972
      H1     6.42369    4.30558  -16.53068
       H    15.96761    5.69830  -15.06117
       O    16.63897    5.10244  -14.61102
      H1    16.10546    4.27642  -14.76037
       H    14.80372    2.30953  -12.23919
       O    13.99513    1.74832  -12.37005
      H1    13.58037    2.08040  -13.17848
       H     9.61810   -1.22807   -9.91181
       O     9.76667   -1.19465  -10.87822
      H1     9.81672   -0.26783  -11.07902
       H    16.99707    0.56969  -18.38042
       O    17.66611   -0.09627  -18.36766
      H1    18.21551   -0.15249  -19.15786
       H    11.50269    6.56615  -12.60773
       O    12.45038    6.52000  -12.38533
      H1    12.68201    6.99071  -11.56195
       H     8.16036   -1.12883  -12.86553
       O     8.50495   -0.71255  -13.65171
      H1     9.17374   -0.11485  -13.33586
       H    14.05587    3.38958  -15.52928
       O    14.92702    3.16848  -15.15242
      H1    15.16912    2.41449  -15.69689
       H    10.40246    2.12915  -17.27529
       O    10.99883    2.61432  -16.70703
      H1    10.74688    3.49809  -16.67817
       H     9.75244    1.84923  -12.24871
       O    10.19237    1.08123  -12.60875
      H1    10.86453    1.33475  -13.26476
       H     9.10863   -3.10907  -16.16236
       O     8.19678   -3.01480  -16.52193
      H1     7.76414   -3.56992  -15.80932
       H     6.84508    3.37214  -18.17559
       O     6.53954    2.95553  -18.98128
      H1     5.64612    3.27710  -19.09967
       H    14.51550    6.76460  -16.67887
       O    15.21770    7.05121  -16.05677
      H1    14.75574    7.68049  -15.48807
       H     7.76535    6.36898  -12.78123
       O     6.86899    6.11278  -12.50432
      H1     6.42498    6.95544  -12.20648
       H    15.52979   -1.16406  -13.15385
       O    14.84141   -0.95262  -12.51320
      H1    14.70312    0.01204  -12.51851
       H    12.25302    0.44965  -14.81192
       O    12.07601    1.37063  -14.58687
      H1    11.80249    1.80813  -15.38000
       H    11.67582   -4.53527  -18.31901
       O    12.34033   -3.83966  -18.45345
      H1    12.81926   -3.80036  -17.60655
       H    16.51357    2.40461  -18.29038
       O    15.89978    1.69249  -18.03284
      H1    15.42106    1.44631  -18.85242

