129
frame 11 | Written by MDAnalysis XYZWriter (release 2.4.3)
       H    15.59975  -11.45146   12.84451
       O    15.20982  -12.10575   13.51017
      H1    14.41625  -12.33479   13.08956
       H    11.86173   -7.90192    9.73896
       O    10.96575   -7.60419    9.98376
      H1    11.07442   -6.73614   10.42194
       H     9.28104   -3.05975   16.55243
       O     9.91249   -2.91155   15.81929
      H1    10.48728   -3.66740   15.78090
       H     9.19192  -12.91538   13.07083
       O     9.89097  -13.44372   12.66694
      H1     9.94901  -14.23861   13.20231
       H     7.63200   -8.30033   19.78767
       O     7.66034   -9.15965   19.34923
      H1     7.49614   -9.00787   18.40597
       H     8.73192   -4.28973   12.14556
       O     8.85108   -4.20688   11.16161
      H1     8.29894   -4.90349   10.76440
       H    14.26109   -7.59148    9.71792
       O    13.57275   -7.49723    9.05126
      H1    13.31220   -6.54924    8.94584
       H    12.23569  -12.52921   15.06212
       O    12.63609  -11.65202   15.16498
      H1    12.81804  -11.35943   14.27245
       H    14.22398  -11.77274   15.86563
       O    14.88658  -11.75501   16.59192
      H1    14.86624  -10.84215   16.94358
       H     8.88726  -10.15388   14.06572
       O     9.20900   -9.31385   13.71204
      H1     9.61457   -9.57963   12.88968
       H    11.33697   -6.99636   14.60931
       O    11.73120   -7.86001   14.51183
      H1    11.00629   -8.50738   14.32100
       H    11.06790  -10.66343   15.92527
       O    10.30820  -10.58020   16.54516
      H1    10.26989  -11.32646   17.17249
       H    11.21660   -9.69525   17.67858
       O    11.61382   -9.05995   18.27556
      H1    11.19786   -9.22354   19.13466
       H     5.57103   -4.86366   15.29507
       O     5.83786   -3.93672   15.18781
      H1     6.77425   -3.96391   14.74252
       H    13.75871   -7.18778   16.37750
       O    14.16631   -7.19910   15.49266
      H1    13.40440   -7.51744   14.92592
       H    13.48451   -4.02572   18.48289
       O    13.58600   -3.97690   17.52944
      H1    14.52493   -4.26384   17.48923
       H     6.76253   -6.59757    9.96691
       O     7.07661   -5.69476    9.79475
      H1     7.58933   -5.82036    8.99055
       H    16.04374   -4.62881    8.86017
       O    15.31605   -4.41474    9.43082
      H1    15.59510   -4.69636   10.30258
       H    11.47822  -12.55052   12.73501
       O    12.11742  -11.88777   12.46301
      H1    12.22830  -12.04933   11.51067
       H    10.96875  -10.48760   11.99899
       O    10.37522  -10.02497   11.45421
      H1    10.80637   -9.15954   11.44130
       H    11.26997   -5.89320   16.57921
       O    11.02713   -5.38216   15.74740
      H1    11.89363   -5.01918   15.45204
       H    14.66221   -8.08375   18.71808
       O    13.86236   -7.58056   18.46109
      H1    13.11232   -8.20215   18.47105
       H     7.99939   -3.03926   19.00422
       O     7.90114   -3.10067   18.05358
      H1     7.37367   -2.31744   17.78918
       H    13.31708   -5.43927   13.37268
       O    13.16824   -6.07459   12.65708
      H1    12.57420   -6.69686   13.06812
       H    10.47324   -0.00439   16.83714
       O    11.19793   -0.67638   16.79858
      H1    10.82490   -1.47365   16.43676
       H     8.44059   -5.41176   14.31810
       O     8.37612   -4.54392   13.91236
      H1     8.87163   -3.97835   14.55908
       H    14.39443   -9.12262   11.26859
       O    13.60858   -9.70688   11.25754
      H1    13.86551  -10.54488   10.78399
       H    10.96871   -7.41416   18.26369
       O    10.96461   -6.47039   18.42343
      H1    11.91289   -6.29202   18.44565
       H    12.82166   -3.20540   14.30952
       O    13.29434   -3.96616   14.74870
      H1    13.45328   -3.65377   15.67521
       H    17.13222   -7.12472   14.22956
       O    16.63652   -7.96581   14.17493
      H1    15.79790   -7.78468   14.62683
       H    10.43576   -6.23887    7.41309
       O    10.12712   -7.17254    7.41868
      H1    10.33965   -7.58111    8.28034
       H     5.96256   -8.80662   17.14414
       O     6.73557   -9.06625   16.65299
      H1     6.92908   -8.23145   16.16263
       H    15.44693   -5.96287   16.43655
       O    15.94678   -5.19367   16.87266
      H1    16.67147   -4.91641   16.31784
       H     8.90988  -11.46854   15.52067
       O     8.38638  -11.83202   14.81907
      H1     7.51570  -11.46923   14.89256
       H    17.97682   -5.43549   12.20471
       O    17.39839   -4.89001   11.70606
      H1    16.95668   -4.42706   12.39032
       H     6.78217   -7.12941   13.74515
       O     7.55377   -7.24820   14.30467
      H1     8.07829   -7.91208   13.86771
       H    15.21290   -3.39469   14.33133
       O    15.95071   -3.28780   13.74413
      H1    16.22166   -2.36188   13.62053
       H    12.28795   -4.41749    9.50139
       O    12.74591   -4.38712    8.66035
      H1    13.75101   -4.48288    8.89389
       H    14.78975   -7.08690   11.65522
       O    15.39196   -7.75133   11.40312
      H1    15.90121   -8.12835   12.18592
       H     7.41018   -6.19223   17.03769
       O     6.84068   -5.54301   17.47201
      H1     7.36423   -4.72151   17.42303
       H    10.45451   -4.72354   10.90697
       O    11.42842   -4.90365   10.95013
      H1    11.67007   -4.79877   11.86905
       H    11.63800   -1.25178   13.90614
       O    11.79665   -2.14040   13.55734
      H1    12.14394   -1.91839   12.71412
       H    10.02237   -9.99615    9.30715
       O     9.70299   -9.79400    8.43018
      H1    10.24740  -10.39215    7.87515

