129
frame 8 | Written by MDAnalysis XYZWriter (release 2.4.3)
       H     7.74155   -8.36354  -12.41110
       O     7.31310   -9.17662  -12.09085
      H1     7.84362   -9.91408  -12.35676
       H     3.92590   -5.75891   -5.61267
       O     3.17692   -5.22629   -5.97912
      H1     3.30769   -5.36436   -6.93280
       H     7.01151   -6.23868  -12.90190
       O     7.84954   -6.65277  -12.63998
      H1     8.04771   -6.44413  -11.75288
       H    11.74360   -9.91224  -11.61782
       O    11.43109   -8.99096  -11.40220
      H1    12.04271   -8.34078  -11.71804
       H    11.71410   -8.63611   -9.82082
       O    11.89296   -8.38367   -8.92242
      H1    12.83564   -8.44670   -8.70546
       H     7.13638   -9.09886  -10.33655
       O     6.73387   -9.05260   -9.42854
      H1     7.40550   -8.64341   -8.91677
       H     3.13240   -4.56757  -10.58849
       O     2.63045   -4.59926  -11.37538
      H1     1.87024   -5.18605  -11.38603
       H     8.28131   -9.94375   -2.90660
       O     8.90218  -10.58041   -3.31310
      H1     9.61669   -9.99393   -3.70824
       H     2.88362   -9.86229   -9.33943
       O     2.65762   -9.00623   -9.71868
      H1     3.37729   -8.45689   -9.34885
       H     4.57714   -3.66619   -9.15407
       O     3.81279   -4.24019   -9.09798
      H1     3.09356   -3.59854   -8.84768
       H    10.06681  -10.01455  -14.38548
       O    10.24608   -9.49267  -15.20141
      H1     9.76141   -8.66250  -15.12115
       H     5.06089  -13.89042   -8.70070
       O     5.41379  -13.73635   -7.78783
      H1     4.67028  -13.70753   -7.16806
       H     6.75335   -6.47725   -7.73189
       O     6.02873   -5.87954   -7.44306
      H1     6.21644   -5.03754   -7.86446
       H    11.39237  -13.42244   -9.85608
       O    10.45695  -12.99973   -9.94541
      H1    10.07817  -13.73844  -10.47956
       H    11.49326   -4.71865   -9.77051
       O    11.21276   -5.14097  -10.59262
      H1    11.41904   -4.62897  -11.33492
       H    12.51910  -11.74422   -6.51393
       O    11.99230  -11.54439   -5.67636
      H1    11.08895  -11.50256   -5.96688
       H     4.17017  -11.37597   -5.65747
       O     3.42793  -11.97520   -5.78779
      H1     3.53481  -12.66381   -5.13927
       H     3.03038  -11.67409   -7.60954
       O     2.86997  -11.53002   -8.56339
      H1     1.99889  -11.85396   -8.71939
       H     8.50838   -6.44710   -5.18516
       O     9.16012   -7.15555   -5.40880
      H1     8.90142   -7.34945   -6.27629
       H     7.49063   -3.13970   -8.41285
       O     6.96042   -3.72092   -8.92861
      H1     6.97018   -3.38349   -9.84434
       H     4.91668   -8.36574   -5.65234
       O     4.37012   -7.73565   -5.14841
      H1     3.55367   -7.65774   -5.61216
       H     8.62404  -11.93600   -7.49498
       O     9.54213  -12.24519   -7.23102
      H1     9.85637  -12.62078   -8.04760
       H    12.45952   -9.45562   -6.39652
       O    12.98910   -8.80970   -5.91636
      H1    13.57135   -9.24059   -5.24334
       H     2.16889   -8.41412   -7.87498
       O     1.83105   -8.05117   -6.99618
      H1     1.42240   -8.74603   -6.45221
       H     5.81699   -8.59911  -14.05636
       O     5.98427   -8.22492  -14.90084
      H1     6.06159   -7.28234  -14.84047
       H     9.06667   -8.12212   -7.81821
       O     8.30352   -7.53019   -7.89789
      H1     8.61010   -6.89914   -8.54926
       H    13.03842   -6.28303   -8.72366
       O    13.40575   -5.46338   -8.51747
      H1    12.67724   -4.95178   -8.02863
       H     4.54452  -10.23223  -12.88239
       O     4.13169  -10.84265  -13.54217
      H1     3.18007  -10.95107  -13.22239
       H     6.16850  -12.14427   -8.07972
       O     6.96518  -11.47182   -8.00011
      H1     6.76860  -10.82895   -8.70142
       H     3.65282   -8.49417  -11.48736
       O     4.39079   -8.53526  -12.18601
      H1     5.15198   -8.08958  -11.74024
       H     4.81256   -5.84316  -12.83005
       O     5.38238   -5.18718  -13.23986
      H1     5.46585   -5.26524  -14.18578
       H    10.13883   -6.91018  -14.80625
       O     9.20608   -6.82917  -15.04566
      H1     8.77686   -6.74492  -14.15151
       H    13.91466   -6.33804  -11.63796
       O    13.11911   -6.80501  -11.68139
      H1    12.46183   -6.22805  -11.16719
       H     4.07446  -12.63413   -9.80422
       O     4.23409  -13.43083  -10.30473
      H1     4.25450  -13.32130  -11.28907
       H    10.90382   -9.16746   -7.73162
       O    10.13643   -9.49054   -7.31655
      H1    10.10930  -10.48370   -7.43765
       H    10.91450   -4.43700   -4.59396
       O    11.14861   -5.14996   -5.28320
      H1    10.46912   -5.81228   -5.25770
       H    10.30285  -11.49484  -12.47155
       O     9.50578  -11.33052  -12.99953
      H1     9.06199  -12.20047  -13.10047
       H     9.37416   -5.34645  -10.29672
       O     8.54487   -5.86822  -10.07012
      H1     7.89240   -5.15432   -9.83775
       H     6.39720  -10.78946   -6.23842
       O     5.74608  -10.35078   -5.58531
      H1     6.11634  -10.32363   -4.68302
       H     6.19258   -8.42125   -3.22937
       O     6.34868   -9.27287   -2.86479
      H1     5.50828   -9.33359   -2.38208
       H     4.62415   -6.73512   -8.83160
       O     4.77290   -7.42843   -9.47521
      H1     5.50387   -8.03181   -9.35267
       H     6.33896   -5.91047   -5.79034
       O     6.79035   -5.66616   -4.98487
      H1     7.11379   -4.81387   -5.25506
       H    11.70856   -8.79818   -4.64365
       O    10.85582   -8.75694   -4.09536
      H1    10.21780   -8.33182   -4.71200

