129
frame 2 | Written by MDAnalysis XYZWriter (release 2.4.3)
       H     8.64000   17.84377   11.46933
       O     8.83819   16.98099   11.07874
      H1     8.11582   16.45881   11.39938
       H     4.44435   13.25363   13.49292
       O     5.27921   12.69921   13.50999
      H1     5.61298   12.81411   12.58372
       H     8.16394   13.05594    7.92983
       O     7.40675   13.62699    7.81390
      H1     6.82611   13.21964    7.17753
       H     3.38587   19.65159    4.96630
       O     3.29298   18.71857    4.71040
      H1     4.06871   18.48583    4.20092
       H     2.77055   18.41615    6.62593
       O     2.41398   18.05326    7.45908
      H1     1.54297   18.37413    7.46433
       H     3.56110   18.99447    8.81363
       O     4.28640   19.42990    9.32445
      H1     4.29980   20.33927    9.04010
       H     3.09369   16.21005   12.86909
       O     2.22443   16.47499   13.25402
      H1     1.53274   16.20018   12.64623
       H     4.96070   16.82235   11.87108
       O     4.60830   15.91652   11.83479
      H1     4.51281   15.74037   10.87313
       H     1.23907    9.52328    6.99309
       O     1.18640    9.54790    7.92856
      H1     1.89864   10.14770    8.22675
       H     6.38974   15.16647   12.56555
       O     7.27417   15.57005   12.78384
      H1     7.76430   14.98425   13.40699
       H     7.44637   19.87296    8.73548
       O     6.78462   19.85451    8.05744
      H1     6.05790   19.29096    8.31884
       H     2.68478   14.86086    6.91022
       O     3.21860   15.44779    7.41807
      H1     2.81676   16.33957    7.33316
       H    10.21076   16.33985   10.15972
       O    11.00924   16.17836    9.58475
      H1    11.75590   16.28068   10.21333
       H     0.31397   18.56837    4.07054
       O     0.66419   17.70635    4.07421
      H1     1.64158   17.73266    3.97457
       H     4.25521   11.38406    7.94259
       O     3.29153   11.46958    7.99640
      H1     3.19241   11.72444    8.91671
       H    -2.05146   12.59214   10.55137
       O    -1.16376   12.96802   10.74660
      H1    -0.68101   12.97891    9.90629
       H     1.83278   13.13997    5.65506
       O     1.77228   13.26340    6.59799
      H1     2.25526   12.51052    6.94843
       H     9.77268   14.54669    4.70451
       O    10.40699   13.87500    4.52504
      H1    11.18291   14.01579    5.03852
       H     8.23598   16.57930    8.17816
       O     7.95050   16.42673    7.26932
      H1     7.95394   15.46215    7.16275
       H     5.54296   13.65888   10.34002
       O     5.75063   12.82650   10.83262
      H1     4.87930   12.43068   10.90234
       H    -1.44827   12.85154    7.49614
       O    -0.74362   13.25538    8.06736
      H1     0.09366   13.05301    7.65863
       H     8.76638   16.74731    5.60255
       O     9.48732   16.38004    5.05340
      H1     9.09304   16.41479    4.12489
       H    -0.58562   16.71443   10.79104
       O    -0.09837   16.06305   11.28518
      H1    -0.56963   15.24974   11.22433
       H     5.39229   15.18639    2.83237
       O     6.24359   14.80369    3.16462
      H1     6.14510   14.71135    4.11064
       H     1.21321   15.01066   10.31371
       O     2.00528   14.54617    9.95831
      H1     2.22600   15.11072    9.22007
       H     7.36996   12.09545   10.22253
       O     8.12534   11.50929   10.12599
      H1     8.67064   11.83810   10.83468
       H     0.01265   13.29216   13.68752
       O     0.61692   13.04582   12.96210
      H1    -0.07182   12.98145   12.24221
       H     4.80524   11.79248    3.05839
       O     5.01888   11.11837    3.73992
      H1     4.32071   10.45948    3.72031
       H     6.13101   11.32041    5.37207
       O     6.13664   11.46019    6.31571
      H1     6.98639   11.05221    6.64292
       H    -0.57766   18.83348    8.38885
       O    -0.02611   19.01425    7.61779
      H1    -0.47662   18.50589    6.90923
       H    10.49877   11.79317    6.92169
       O     9.82621   11.85024    6.22578
      H1     9.92932   12.66558    5.67189
       H     7.04309   16.89889   14.19169
       O     6.84342   17.27816   15.07591
      H1     6.02020   16.76895   15.41679
       H     8.98068   10.49988    7.26754
       O     8.22718   10.13753    7.76693
      H1     8.16504   10.77127    8.52474
       H     6.09687   14.78995    8.56600
       O     5.36844   15.07315    9.08064
      H1     4.66532   14.93644    8.49295
       H     5.25427   13.35297    5.64355
       O     5.55835   14.22095    5.86920
      H1     4.79023   14.67509    6.28335
       H     0.38676   12.37133    3.97204
       O     1.20548   12.86414    3.78616
      H1     1.02266   13.64455    3.22316
       H    -0.47319   17.22101    5.23527
       O    -1.21082   17.34723    5.89103
      H1    -1.91167   16.68584    5.83260
       H     5.38209   19.04681   12.25454
       O     5.91105   18.57574   11.58777
      H1     5.46231   18.70921   10.76315
       H     7.01898    9.48020   12.30234
       O     7.60912    9.18215   11.56195
      H1     7.86590    9.96269   11.09412
       H     4.31506    9.81670   12.42101
       O     4.80600   10.01624   13.24292
      H1     4.85112   10.91803   13.36830
       H     2.45719   14.43890   14.49449
       O     3.18329   13.96555   14.92035
      H1     2.82687   13.36290   15.56827
       H     2.66738   12.85102   10.56228
       O     3.15364   12.03227   10.68341
      H1     2.59686   11.46217   11.25987
       H     7.29826   18.12793    5.82052
       O     6.96500   18.94332    5.43501
      H1     7.11794   19.54270    6.17016

