129
frame 3 | Written by MDAnalysis XYZWriter (release 2.4.3)
       H    -9.20332   -1.42752   -8.70592
       O    -9.36814   -1.96777   -9.45580
      H1    -8.61574   -1.96609  -10.05896
       H    -6.38130  -10.92773  -10.52124
       O    -6.27352   -9.98259  -10.85490
      H1    -5.34371   -9.79941  -10.81131
       H    -8.76235   -9.72263  -12.88075
       O    -9.52259  -10.32090  -12.98747
      H1    -9.29583  -11.04546  -13.54399
       H   -15.56794   -2.19505  -11.76573
       O   -14.80250   -2.57212  -11.29024
      H1   -14.92875   -3.53677  -11.23903
       H   -12.91616   -6.49236   -9.57514
       O   -13.63568   -5.91006   -9.23752
      H1   -13.24333   -5.05855   -9.46709
       H   -13.17538   -9.51658  -10.15929
       O   -13.65518   -9.69861  -10.97318
      H1   -14.61722   -9.69496  -10.76200
       H    -8.96533   -6.03710   -4.31629
       O    -8.69865   -5.72649   -3.39663
      H1    -9.62003   -5.36489   -3.12056
       H   -15.61631   -1.38210   -8.44880
       O   -15.01273   -2.13720   -8.47132
      H1   -14.74085   -2.12534   -9.39046
       H    -6.35447   -4.48353   -9.09701
       O    -6.83232   -4.93377   -8.37548
      H1    -7.12347   -5.74028   -8.76894
       H    -9.93098  -11.36105   -9.76914
       O    -9.23294  -11.27603   -9.05292
      H1    -9.47886  -11.99911   -8.37354
       H   -14.24242  -10.30630  -12.65853
       O   -14.59528  -10.87338  -13.37718
      H1   -15.02705  -10.23509  -13.92376
       H   -14.58634   -5.16967   -7.38708
       O   -14.81790   -4.54750   -6.65681
      H1   -14.89930   -3.66406   -7.11657
       H   -13.33559   -1.08008   -9.00642
       O   -12.42052   -1.16054   -9.19977
      H1   -12.36044   -0.55092  -10.00646
       H   -16.81143   -9.12964  -11.24885
       O   -16.45575   -9.90112  -10.81290
      H1   -16.89823  -10.05751   -9.97828
       H   -13.87412  -12.04040  -12.31854
       O   -13.68836  -12.70470  -11.59112
      H1   -12.77026  -12.60667  -11.39713
       H   -12.64120   -9.83317   -8.09978
       O   -12.71828   -8.95373   -8.57687
      H1   -13.35540   -8.50033   -8.00097
       H   -10.15007   -5.38702   -6.41955
       O    -9.68461   -6.13487   -6.02006
      H1    -9.72936   -6.86432   -6.63116
       H   -13.27773   -2.20271  -12.09873
       O   -12.46290   -2.06230  -12.64304
      H1   -12.68920   -1.55619  -13.40513
       H   -11.14685   -6.55875  -14.77981
       O   -11.36346   -5.63793  -14.97583
      H1   -10.78851   -5.25459  -15.66080
       H   -11.67962   -7.86187   -9.31465
       O   -11.15883   -7.22322   -9.86993
      H1   -11.54990   -7.42767  -10.72564
       H   -15.20460   -5.78367  -14.67312
       O   -15.90844   -5.80647  -14.03077
      H1   -16.00797   -6.68494  -13.69822
       H    -7.47666   -2.84246  -11.31673
       O    -7.01084   -1.99855  -11.17539
      H1    -7.26999   -1.42388  -11.88734
       H    -7.08111   -8.30305  -12.19929
       O    -7.60405   -8.23617  -13.02775
      H1    -7.36785   -7.36565  -13.43055
       H   -15.59476   -8.11115   -5.40856
       O   -15.01893   -7.37160   -5.14467
      H1   -14.29709   -7.29617   -5.81117
       H    -7.72057   -8.05037  -10.13630
       O    -7.13296   -7.28888  -10.03104
      H1    -6.35672   -7.69059   -9.57715
       H   -10.94958   -3.39111  -12.63045
       O   -10.40147   -3.79904  -13.30430
      H1   -10.89299   -4.50923  -13.69140
       H   -13.11768   -6.40664   -7.77398
       O   -12.92262   -6.78636   -6.91472
      H1   -12.45805   -6.05617   -6.42022
       H   -12.31964  -10.69923   -5.98284
       O   -12.21364  -10.44048   -5.04389
      H1   -13.00855   -9.95289   -4.83425
       H   -11.36939   -8.64741   -4.12372
       O   -11.27623   -7.86790   -3.57232
      H1   -10.89790   -7.22140   -4.16226
       H    -8.41572   -9.24382   -6.12858
       O    -7.62960   -9.73371   -5.75169
      H1    -8.06953  -10.29559   -5.06003
       H   -13.96754   -4.78140  -16.54634
       O   -13.68104   -5.65714  -16.35133
      H1   -12.91759   -5.62717  -15.73020
       H   -10.43980  -11.50726  -11.93843
       O   -10.92054  -11.92478  -11.17992
      H1   -10.73754  -12.92707  -11.20072
       H   -13.10846   -8.40158  -11.79696
       O   -12.97576   -7.49001  -12.14755
      H1   -12.39692   -7.67864  -12.92804
       H   -10.96938   -3.69255  -10.02334
       O   -11.91600   -3.63985  -10.15120
      H1   -12.09102   -2.77149   -9.88921
       H   -18.30468   -7.32789  -12.16796
       O   -17.39073   -7.42396  -11.94871
      H1   -17.14891   -6.64135  -11.57461
       H    -9.46337   -3.08161   -6.34030
       O   -10.39121   -3.04379   -6.64820
      H1   -10.35749   -2.84202   -7.58642
       H    -9.05759   -4.51812  -12.30288
       O    -8.31315   -4.42647  -11.67550
      H1    -8.27586   -5.18400  -11.11955
       H   -11.60100  -11.81968   -7.64354
       O   -12.37579  -11.25968   -7.50902
      H1   -13.15902  -11.69517   -7.82609
       H   -10.85713   -8.09625   -7.07006
       O   -10.06560   -8.66604   -6.98612
      H1   -10.00504   -9.10964   -7.86471
       H    -7.35214  -13.46264   -9.88708
       O    -7.10676  -12.51355   -9.93477
      H1    -7.90789  -12.07281   -9.65819
       H   -13.27343   -4.32978   -5.62140
       O   -12.37938   -4.37187   -5.27148
      H1   -11.95042   -3.58114   -5.55269
       H   -10.78586   -8.42198  -15.63283
       O   -10.95127   -8.15798  -14.69320
      H1   -10.36165   -8.65688  -14.08171
       H   -15.90120   -4.87412  -12.32437
       O   -15.63804   -5.04080  -11.39916
      H1   -15.13617   -5.86862  -11.26859

