129
frame 5 | Written by MDAnalysis XYZWriter (release 2.4.3)
       H    -4.59764  -18.78505  -15.92175
       O    -4.87810  -18.40882  -16.81270
      H1    -5.27981  -19.21627  -17.23781
       H    -6.16645  -12.07679  -15.75425
       O    -6.08267  -12.98689  -15.38182
      H1    -5.29740  -13.29140  -15.80366
       H     0.48890  -19.08472  -16.59151
       O     1.34272  -18.77030  -16.44176
      H1     1.72852  -19.28713  -15.73777
       H     0.61111  -10.04461  -11.34687
       O     0.97706   -9.47538  -12.01961
      H1     0.63489   -9.69324  -12.93025
       H    -2.97012  -17.39190  -13.72828
       O    -2.52870  -16.53890  -13.89439
      H1    -1.86854  -16.41995  -13.22340
       H     4.02777  -17.00217  -18.19173
       O     4.90427  -17.41926  -18.00415
      H1     4.68950  -17.98265  -17.21222
       H    -1.97604  -11.39668  -16.75410
       O    -1.83719  -12.29372  -16.42890
      H1    -1.19628  -12.70486  -16.98811
       H     4.34887  -13.11593  -14.59128
       O     4.08698  -13.67589  -15.35837
      H1     4.54067  -14.52535  -15.18242
       H    -7.04755   -9.78368  -14.82329
       O    -6.37563   -9.97852  -15.51814
      H1    -6.70708   -9.53448  -16.30437
       H    -4.69227  -15.65746  -14.61777
       O    -5.62577  -15.77973  -14.64422
      H1    -6.02042  -15.07830  -15.15163
       H     0.42316  -15.90953  -12.65191
       O    -0.26172  -16.58773  -12.45660
      H1     0.13145  -16.93503  -11.59850
       H    -2.58752  -12.84551  -19.00463
       O    -3.37298  -12.41155  -19.28987
      H1    -3.44690  -12.37408  -20.24917
       H    -1.53745  -14.90629  -18.03138
       O    -1.06052  -14.10672  -18.41926
      H1    -0.54135  -14.61374  -19.13256
       H    -3.73957  -10.29044  -12.81060
       O    -4.06366  -10.60950  -11.96059
      H1    -3.57499  -10.08972  -11.32753
       H     3.48320  -11.06718  -15.70653
       O     2.84056  -10.33302  -15.61615
      H1     3.36360   -9.60700  -15.28952
       H     1.96692  -15.79317  -14.72759
       O     2.53061  -16.11713  -15.44599
      H1     2.19492  -16.94938  -15.83180
       H     3.20048  -15.66622  -17.31099
       O     2.85623  -15.75358  -18.19014
      H1     3.36269  -15.07280  -18.69839
       H    -3.84828  -18.18748  -18.43061
       O    -3.22487  -18.66368  -19.02779
      H1    -2.84129  -18.04231  -19.68146
       H    -5.41037  -13.07528  -13.57745
       O    -5.06611  -13.14059  -12.65476
      H1    -4.71142  -12.27112  -12.53211
       H    -3.08944  -13.63453  -16.50006
       O    -3.80654  -14.27871  -16.51182
      H1    -3.44933  -15.12927  -16.83569
       H    -3.77001  -14.60367  -12.20220
       O    -3.26418  -14.70869  -11.30813
      H1    -3.66702  -14.21204  -10.57589
       H     2.42767  -13.94014  -16.18719
       O     1.59169  -13.56820  -16.59755
      H1     1.24686  -14.35343  -17.03366
       H    -3.10815   -9.68143  -17.24371
       O    -2.30071   -9.57185  -16.73594
      H1    -2.51766   -9.50563  -15.81128
       H     1.61860  -14.70162  -12.07396
       O     1.61405  -14.75907  -13.02817
      H1     0.97161  -14.10131  -13.37980
       H    -1.58374   -7.27326  -15.44065
       O    -1.26742   -7.45886  -14.54941
      H1    -0.72008   -8.26206  -14.64046
       H    -0.52877  -11.69278  -10.66886
       O     0.19773  -11.33026  -10.14600
      H1     0.81331  -12.01463  -10.40181
       H    -4.54332   -9.34030  -14.74154
       O    -3.65506   -9.25403  -14.43491
      H1    -3.54462   -8.39124  -13.96933
       H    -3.96173  -10.65338  -18.95025
       O    -4.01445   -9.69581  -18.76799
      H1    -4.37300   -9.30854  -19.57963
       H     4.30145  -18.25740  -14.15182
       O     3.74537  -17.69240  -13.62075
      H1     3.28504  -17.03231  -14.23531
       H     3.77366  -13.02694  -18.39479
       O     4.59402  -13.47963  -18.14704
      H1     4.59148  -13.56641  -17.20690
       H     1.75771  -12.53859  -17.99170
       O     2.22231  -12.23861  -18.84229
      H1     1.97025  -11.30250  -19.00526
       H     4.92931  -10.28536  -12.15717
       O     4.85933  -11.12969  -12.49971
      H1     3.91048  -11.36956  -12.42402
       H    -1.62277  -17.30418  -17.09931
       O    -1.92053  -16.39531  -16.86482
      H1    -1.97718  -16.40357  -15.89153
       H    -2.48912  -11.59593  -11.57971
       O    -1.80733  -12.31765  -11.58144
      H1    -2.32996  -13.12042  -11.43624
       H    -6.42114  -16.34812  -18.18586
       O    -6.48292  -15.88684  -17.38029
      H1    -5.94669  -16.35557  -16.68663
       H    -5.95560  -14.31797  -18.27984
       O    -6.05654  -13.37041  -18.48176
      H1    -5.17500  -13.02280  -18.21957
       H    -1.65873  -20.11122  -16.84464
       O    -1.36945  -19.31775  -17.36952
      H1    -2.08898  -19.26545  -17.99479
       H    -5.58378   -5.81016  -16.77386
       O    -5.97556   -6.56614  -17.26712
      H1    -5.19383   -7.08838  -17.58016
       H    -0.23823   -6.48780  -19.31757
       O    -0.32965   -5.71041  -18.75122
      H1     0.53519   -5.27754  -18.73628
       H    -0.92216  -12.89280  -14.74027
       O    -0.40886  -12.75840  -13.91630
      H1    -1.07572  -12.65149  -13.23126
       H    -2.24336   -7.88739  -17.20293
       O    -2.10784   -6.96359  -16.99273
      H1    -1.36763   -6.68612  -17.53262
       H     0.10241  -10.90480  -14.77088
       O     0.14993   -9.94736  -14.75873
      H1     0.88228   -9.74380  -15.32442
       H     2.14730  -12.12553  -13.00774
       O     2.29425  -11.67106  -12.15302
      H1     1.84420  -10.76710  -12.17110

