129
frame 8 | Written by MDAnalysis XYZWriter (release 2.4.3)
       H    16.85764  -14.54294   -0.23496
       O    16.98661  -13.69347   -0.63518
      H1    16.88193  -13.87817   -1.61232
       H    18.39391   -8.88869   -8.70745
       O    18.29026   -9.68830   -8.20542
      H1    17.89418   -9.50823   -7.30631
       H    12.43083   -2.47656   -0.44819
       O    12.98970   -2.09589   -1.13101
      H1    13.48990   -2.84403   -1.55686
       H    13.59276   -7.08356    2.43186
       O    14.03306   -6.46639    3.02199
      H1    14.96232   -6.19331    2.64143
       H    13.91331   -9.00387   -0.20631
       O    13.22956   -8.50092   -0.80707
      H1    12.76098   -9.20043   -1.22423
       H    17.86328  -10.20924   -0.40261
       O    17.65978   -9.66844    0.37427
      H1    16.70049   -9.73245    0.55670
       H    18.36248   -5.68976   -4.20216
       O    19.19939   -6.13787   -3.94498
      H1    19.40343   -6.02561   -3.03862
       H    14.41239  -12.30780    1.43363
       O    14.93588  -12.08922    0.60899
      H1    15.70475  -12.69211    0.81470
       H    14.14777   -4.79506   -3.20172
       O    14.27704   -4.31282   -2.35194
      H1    14.02013   -4.93320   -1.63667
       H     8.28131   -9.94375   -2.90660
       O     8.90218  -10.58041   -3.31310
      H1     9.61669   -9.99393   -3.70824
       H    17.62781  -12.04610   -4.46114
       O    16.98752  -11.47808   -3.90703
      H1    16.81659  -10.79148   -4.60186
       H    15.03884  -10.42745    1.09331
       O    15.05764   -9.46284    0.97674
      H1    15.31113   -9.09211    1.89708
       H    17.33692   -8.29552    3.00331
       O    16.64615   -8.98187    3.12634
      H1    16.37109   -8.61224    3.98273
       H    15.28012   -1.23982   -3.78883
       O    15.85865   -0.92646   -3.07475
      H1    15.28063   -0.28272   -2.54761
       H    12.91008   -6.22981    0.57828
       O    13.26713   -5.39936    0.30262
      H1    14.17877   -5.39178    0.68681
       H    14.01605  -12.94345   -0.72795
       O    13.32434  -13.17890   -1.38059
      H1    13.42958  -14.09862   -1.60621
       H    13.67320  -11.92120   -8.41800
       O    13.88924  -11.24236   -7.72604
      H1    14.77800  -11.64388   -7.59879
       H    14.61522   -8.03643   -1.88917
       O    15.32536   -7.61380   -2.39501
      H1    16.09570   -7.49065   -1.87069
       H    12.51910  -11.74422   -6.51393
       O    11.99230  -11.54439   -5.67636
      H1    11.08895  -11.50256   -5.96688
       H    11.37877   -7.32831   -1.41641
       O    10.43644   -7.39903   -1.69432
      H1    10.55078   -7.92245   -2.51602
       H    16.82349  -14.99211   -3.53344
       O    17.12741  -14.12695   -3.30861
      H1    16.39586  -13.63205   -3.62325
       H    17.63196   -2.90513    0.07556
       O    16.71572   -3.11084    0.05772
      H1    16.46662   -3.18196   -0.89214
       H    12.45952   -9.45562   -6.39652
       O    12.98910   -8.80970   -5.91636
      H1    13.57135   -9.24059   -5.24334
       H    14.56361   -9.61568   -8.13945
       O    14.54703   -8.71178   -8.56089
      H1    14.79535   -8.24952   -7.74227
       H    16.87609   -4.60336   -3.64524
       O    16.74311   -5.00318   -4.49786
      H1    15.87454   -5.38288   -4.58532
       H    14.74450   -6.98234   -5.86478
       O    15.47657   -7.27404   -6.41563
      H1    15.75266   -6.44365   -6.84096
       H    12.04784   -5.17316    2.40054
       O    11.35940   -4.75078    2.99880
      H1    10.62819   -5.37557    3.24277
       H    18.27279   -2.94323   -2.52657
       O    17.37467   -3.29154   -2.62195
      H1    16.86003   -2.47451   -2.62710
       H    16.55129   -6.30397    0.86667
       O    15.99780   -5.57865    1.16906
      H1    16.27066   -4.79317    0.68373
       H    13.13257  -12.54850   -4.62705
       O    13.82566  -13.20002   -4.50798
      H1    13.68511  -13.43099   -3.55327
       H    11.16250   -2.33972   -4.14978
       O    11.95878   -2.81497   -3.76083
      H1    11.78493   -3.25944   -2.96072
       H    19.25814   -7.78200    2.12559
       O    18.80732   -7.29600    2.83178
      H1    18.67301   -6.35004    2.67129
       H    14.38988   -6.74821   -3.84487
       O    14.20874   -6.03076   -4.44743
      H1    13.27588   -6.03283   -4.68872
       H    13.67716   -2.27226   -4.73074
       O    14.56960   -2.51975   -5.12443
      H1    14.58421   -3.48399   -5.19753
       H    12.28851   -8.29038    0.85676
       O    12.21768   -7.94936    1.77832
      H1    11.97215   -8.71791    2.26917
       H    16.76844   -8.64216   -6.06237
       O    17.31946   -9.38023   -5.80253
      H1    18.00199   -9.01537   -5.25786
       H    18.11468   -6.99810   -1.19139
       O    17.29176   -7.08204   -0.61690
      H1    17.35890   -7.95405   -0.14867
       H    10.91450   -4.43700   -4.59396
       O    11.14861   -5.14996   -5.28320
      H1    10.46912   -5.81228   -5.25770
       H    16.68062   -2.33073   -6.01484
       O    17.42728   -2.80772   -6.40061
      H1    17.50106   -3.62817   -5.90850
       H    12.89253  -11.35462   -2.22656
       O    12.50907  -10.46622   -2.44733
      H1    11.61109  -10.58449   -2.78982
       H    18.57850  -11.17828   -2.94136
       O    19.27945  -10.90802   -2.30620
      H1    19.32136  -11.62496   -1.60562
       H    16.74424   -5.93391   -8.81589
       O    16.30093   -5.33245   -8.17795
      H1    15.36094   -5.39547   -8.23373
       H    11.70856   -8.79818   -4.64365
       O    10.85582   -8.75694   -4.09536
      H1    10.21780   -8.33182   -4.71200

