129
frame 2 | Written by MDAnalysis XYZWriter (release 2.4.3)
       H   -18.47052    0.11238   10.59607
       O   -19.39929    0.16197   10.88540
      H1   -19.35398    0.97210   11.39551
       H   -16.33669    7.76162    9.98920
       O   -16.67964    7.11527   10.64686
      H1   -17.61113    7.04605   10.41817
       H   -16.74619    5.40156    7.63299
       O   -16.02034    4.70649    7.63241
      H1   -15.49197    4.96343    8.40494
       H   -13.79233    3.51672   12.64410
       O   -13.98660    2.51953   12.71267
      H1   -13.44532    2.28728   13.45389
       H   -17.11967   -4.79915   13.23553
       O   -16.40026   -4.34604   13.65898
      H1   -16.67898   -3.86402   14.45915
       H   -16.94504    3.22718    8.17417
       O   -17.43205    2.39215    8.14742
      H1   -18.33566    2.69643    7.92387
       H   -19.45823   -5.49914   12.11218
       O   -18.95535   -4.66923   12.42198
      H1   -19.53803   -3.92722   12.36122
       H   -13.30284    3.56428   17.01633
       O   -12.40353    3.76489   16.66042
      H1   -11.84556    3.36234   17.37031
       H   -14.60717   -0.27621   15.13207
       O   -13.65909   -0.48734   15.08884
      H1   -13.54454   -0.82319   14.20435
       H   -15.45394    5.52649   10.29642
       O   -14.82398    4.91814    9.95308
      H1   -14.90317    4.26157   10.63089
       H   -14.02464    5.13329   14.27831
       O   -13.90812    5.37650   13.32837
      H1   -12.95221    5.36135   13.15029
       H   -18.83588    4.97185   14.88563
       O   -18.31329    5.37876   14.21155
      H1   -17.50243    4.81511   14.24778
       H   -19.13663    1.55499    4.57662
       O   -19.34256    1.24930    3.69886
      H1   -18.64169    1.55698    3.06935
       H   -16.58161   -2.82975   12.46249
       O   -16.89509   -1.96069   12.12955
      H1   -17.81608   -1.80557   12.42690
       H   -16.60192    2.60152   15.10923
       O   -15.78721    3.01534   14.71650
      H1   -15.42193    2.51785   14.02639
       H   -19.72252    1.79648   13.53550
       O   -19.46316    2.56165   12.93384
      H1   -18.52365    2.40270   12.84335
       H   -17.14771    2.43372    3.77561
       O   -16.83027    2.30336    4.72678
      H1   -17.32558    2.95993    5.25252
       H   -17.95056    7.15472   14.22670
       O   -17.53925    8.03880   14.31490
      H1   -16.76939    8.05024   13.71696
       H   -17.94566   -6.12034   14.81528
       O   -18.91895   -6.00891   14.91403
      H1   -19.18619   -5.39305   14.19854
       H   -15.45288    1.24577   12.28024
       O   -16.04105    0.75562   12.78258
      H1   -16.01678   -0.10362   12.28626
       H   -16.90031    0.84476    9.30036
       O   -16.73489    0.29832   10.04872
      H1   -16.67978   -0.63050    9.75108
       H   -17.62077    8.19915   16.92517
       O   -17.79101    8.40780   17.82764
      H1   -17.86781    9.36396   17.93847
       H   -14.40264    1.14391   10.13826
       O   -13.92601    1.40894    9.34772
      H1   -13.94448    0.59746    8.77553
       H   -16.34507   -0.16890   14.26995
       O   -16.34904   -0.34247   15.22948
      H1   -16.50552   -1.27730   15.35901
       H   -15.80005   -2.44299   18.64013
       O   -16.51562   -2.08301   19.14355
      H1   -17.05909   -2.86213   19.37398
       H   -14.78780    3.28748   18.79986
       O   -14.72290    2.71867   18.06782
      H1   -14.22171    1.93023   18.41101
       H   -14.29863    6.37955   16.92870
       O   -13.69849    6.79583   17.61604
      H1   -12.85920    6.76531   17.15849
       H   -15.80973    7.61079   11.92269
       O   -15.46840    8.03719   12.73643
      H1   -14.90238    7.34210   13.14686
       H   -17.17620   -1.18946    7.99363
       O   -16.49091   -1.74522    8.36433
      H1   -15.66324   -1.24022    8.33990
       H   -13.92521   -2.06778   11.22191
       O   -14.51740   -2.13029   10.44895
      H1   -15.38002   -2.05012   10.88940
       H   -10.89802    2.96269    9.37171
       O   -11.57439    3.64464    9.47307
      H1   -12.35050    3.05274    9.23812
       H   -19.57904   -2.15420    7.71729
       O   -19.17789   -1.26418    7.58972
      H1   -18.78259   -1.32930    6.67140
       H   -20.01313    0.55898   17.16686
       O   -19.93157    0.27060   18.09142
      H1   -19.06006    0.57938   18.40070
       H   -13.38742   -3.15308   13.28833
       O   -13.18239   -2.25776   12.98779
      H1   -12.29289   -2.32341   12.73479
       H   -17.37973    0.29254    5.30487
       O   -17.36779   -0.66815    5.43494
      H1   -17.55777   -1.15535    4.62549
       H   -17.47260    7.44712    6.88782
       O   -17.81820    6.66879    7.27959
      H1   -18.35511    6.30255    6.55585
       H   -15.55267   -3.22218   16.57510
       O   -16.35214   -3.05828   16.12490
      H1   -17.08838   -3.04784   16.69005
       H   -18.39884   -4.37726    9.66056
       O   -17.66648   -4.43287    9.03407
      H1   -17.51872   -3.50198    8.90462
       H   -12.16096    1.41296   11.41671
       O   -11.41644    0.91179   11.78162
      H1   -11.47814    1.14615   12.69863
       H   -15.99948    6.30047   15.21795
       O   -15.54806    5.62691   15.70726
      H1   -15.95050    4.79948   15.44019
       H   -17.87146    3.13032   18.75676
       O   -17.34473    2.43608   18.32304
      H1   -16.36835    2.71176   18.09199
       H   -18.09134    2.11516   16.69968
       O   -18.03610    1.67230   15.81958
      H1   -17.52164    0.80400   15.89150
       H   -12.22091    2.43446   15.20170
       O   -12.06378    1.75320   14.56839
      H1   -12.50933    0.97209   14.91853

