129
frame 5 | Written by MDAnalysis XYZWriter (release 2.4.3)
       H   -10.88766  -17.02975   -8.86127
       O   -10.26791  -16.71832   -9.53244
      H1    -9.65534  -17.45930   -9.60964
       H    -9.34872  -18.83717   -6.73395
       O    -9.20347  -19.16780   -5.84071
      H1   -10.08750  -19.45680   -5.55555
       H   -10.66809  -16.22386   -3.63764
       O   -10.45509  -15.94147   -4.53548
      H1    -9.49896  -16.08844   -4.81834
       H   -15.96088  -12.56074   -0.39047
       O   -16.52201  -12.53391   -1.18891
      H1   -17.34021  -13.09464   -1.10377
       H   -15.99829   -8.52016   -2.80774
       O   -15.50437   -7.91319   -2.17695
      H1   -14.98059   -7.34571   -2.81989
       H   -17.96744  -13.17830    2.30397
       O   -18.64570  -12.66013    1.94070
      H1   -18.35035  -11.77046    2.10618
       H   -14.77922  -17.70289   -7.90229
       O   -14.23070  -18.50279   -7.78498
      H1   -14.06544  -18.77003   -8.69852
       H   -17.49054  -15.37056   -7.63678
       O   -16.66668  -15.75733   -8.05439
      H1   -16.84150  -15.44305   -8.94122
       H   -10.80800  -14.93281   -7.31960
       O   -10.52326  -14.07064   -7.36112
      H1   -10.12591  -13.85918   -6.48266
       H   -17.66476  -15.15787   -4.20408
       O   -18.60669  -15.01375   -4.17147
      H1   -19.09638  -15.85956   -4.01447
       H   -16.64205  -14.78517    3.01988
       O   -16.26426  -13.97353    2.55236
      H1   -16.12294  -13.35585    3.31093
       H   -10.85170  -12.42127   -0.88072
       O   -10.33006  -11.59797   -0.78991
      H1   -10.92245  -10.89524   -1.02489
       H   -16.67535  -18.30254    0.76385
       O   -16.09049  -17.66907    1.12308
      H1   -15.77334  -17.81528    1.99265
       H    -9.72670  -19.22455   -0.14932
       O    -9.84576  -18.85131   -1.11168
      H1   -10.73369  -19.13812   -1.43698
       H   -17.73879  -18.97737   -7.13497
       O   -17.54787  -18.38876   -7.90489
      H1   -17.26312  -17.52400   -7.67378
       H   -15.09308  -13.07354    1.35428
       O   -14.56252  -12.54449    0.75284
      H1   -14.12188  -11.92463    1.27141
       H   -12.07286  -15.67694    2.02771
       O   -11.76015  -15.99952    1.16156
      H1   -11.86843  -15.18449    0.59689
       H   -14.55869   -8.10642   -6.17087
       O   -13.99045   -8.63573   -5.58369
      H1   -13.19460   -8.58254   -6.14997
       H   -12.03413  -10.46631   -5.85648
       O   -11.51307  -10.22922   -5.02474
      H1   -12.12813  -10.34345   -4.27102
       H    -9.99525  -13.97416   -4.68421
       O    -9.57830  -13.26920   -5.09003
      H1   -10.17971  -12.53368   -4.93325
       H   -19.78794  -13.50536   -1.64477
       O   -18.93443  -13.89516   -1.55726
      H1   -18.70296  -14.26582   -2.42381
       H   -16.85012   -9.69586   -5.21557
       O   -16.63300   -9.78357   -4.24830
      H1   -17.49875   -9.81373   -3.78708
       H   -17.32550  -10.64435   -1.43776
       O   -17.88159  -10.03541   -1.92390
      H1   -18.80182  -10.34861   -1.81728
       H   -13.99866  -10.08313   -3.54749
       O   -13.36450  -10.57063   -2.99951
      H1   -13.91177  -11.39846   -2.84933
       H   -18.93829  -15.51668   -0.59510
       O   -18.44578  -16.31554   -0.38482
      H1   -17.64122  -15.87362   -0.00796
       H   -19.74796  -15.79371   -7.16575
       O   -19.16549  -15.10532   -6.81855
      H1   -18.99011  -15.34220   -5.88063
       H   -16.09134  -11.31826   -3.82909
       O   -15.58226  -12.17198   -3.67838
      H1   -15.84716  -12.41038   -2.74767
       H   -18.19269  -17.80304   -1.53658
       O   -18.46082  -18.52166   -2.06908
      H1   -18.03260  -19.27391   -1.70054
       H   -14.20848  -13.04561   -4.86271
       O   -13.34697  -13.26969   -5.18554
      H1   -13.09129  -12.52701   -5.72447
       H   -12.31575  -14.03789   -1.36067
       O   -11.87524  -13.76338   -0.56642
      H1   -12.68855  -13.34511   -0.18600
       H   -12.41472  -16.67694   -7.03189
       O   -11.50788  -16.84387   -6.93519
      H1   -11.29072  -16.47983   -6.03612
       H   -11.80189  -10.80386   -8.04901
       O   -12.48789  -10.35813   -7.54440
      H1   -13.23947  -10.95903   -7.48245
       H   -14.51323  -19.24853   -4.86922
       O   -14.07134  -18.39462   -5.11373
      H1   -13.81634  -18.43542   -6.08543
       H   -14.68895  -12.16359   -8.35793
       O   -14.61661  -11.82521   -7.44222
      H1   -15.47690  -11.43994   -7.38178
       H    -9.17310  -17.41275   -1.59053
       O    -8.54408  -16.70653   -1.88313
      H1    -8.44326  -16.92718   -2.83199
       H   -15.58045  -14.21508  -10.21657
       O   -16.36613  -14.52286  -10.68384
      H1   -16.83726  -13.71825  -10.93087
       H   -12.53188  -17.39690   -1.68483
       O   -12.01786  -17.21091   -2.46881
      H1   -12.15236  -17.99250   -3.01263
       H   -15.05377  -15.34933   -3.59613
       O   -15.70522  -15.53291   -4.33508
      H1   -15.39724  -16.43097   -4.64969
       H   -13.19607  -14.09720   -9.62755
       O   -14.06237  -13.92255   -9.32451
      H1   -14.07788  -14.41933   -8.49343
       H   -17.69195  -11.00673   -7.93482
       O   -17.09561  -10.32636   -7.59024
      H1   -17.47371   -9.52840   -8.03945
       H   -13.20174  -14.13825   -3.62025
       O   -13.33957  -14.70197   -2.84448
      H1   -13.12878  -15.58194   -3.20827
       H   -12.85781  -17.22722    0.27535
       O   -13.50700  -17.87190   -0.06397
      H1   -14.28190  -17.52184    0.42897
       H   -14.88845  -15.38995   -7.08913
       O   -13.89173  -15.56863   -6.98251
      H1   -13.62582  -14.83741   -6.42306

