129
frame 2 | Written by MDAnalysis XYZWriter (release 2.4.3)
       H   -14.34845    1.70378   -6.05364
       O   -13.66562    1.20845   -5.53835
      H1   -13.35945    0.53050   -6.19967
       H   -16.95272   -5.96342   -2.45806
       O   -17.79934   -6.28747   -2.08374
      H1   -18.46354   -6.04307   -2.66072
       H   -16.29478   -6.73907    1.51913
       O   -15.68441   -7.38418    1.14173
      H1   -16.03641   -7.59467    0.29909
       H   -10.09805   -1.67748    2.00871
       O    -9.15619   -1.67468    2.22477
      H1    -9.11551   -0.90890    2.84941
       H   -18.94766   -3.22657   -0.33890
       O   -18.30177   -3.39153    0.41832
      H1   -18.26523   -2.51725    0.79260
       H   -14.85889   -5.79100   -3.22134
       O   -15.60936   -5.66100   -3.81710
      H1   -15.62156   -6.43709   -4.37800
       H   -12.86895   -3.34572   -1.24861
       O   -12.07636   -2.77596   -1.49499
      H1   -11.74280   -2.49292   -0.62406
       H    -9.84530   -6.54057   -5.74178
       O    -9.27215   -5.98676   -5.15429
      H1    -9.84054   -5.66143   -4.38520
       H    -7.79976   -3.16030   -3.82897
       O    -7.22896   -2.61852   -4.41476
      H1    -6.75861   -3.26373   -4.92403
       H   -15.94093   -4.06496   -4.13423
       O   -16.29809   -3.16159   -3.91268
      H1   -15.54356   -2.55728   -4.20959
       H   -10.91841   -4.42139    2.95019
       O   -10.76125   -3.81645    3.67995
      H1   -10.11868   -3.14134    3.37728
       H   -11.10780    1.61583    3.01224
       O   -11.43613    2.13285    2.23246
      H1   -11.05104    1.66942    1.49249
       H   -13.92100   -0.79496    3.00346
       O   -14.21753   -1.44395    2.36936
      H1   -14.38637   -2.28517    2.79193
       H   -16.18909   -1.38973   -0.00147
       O   -16.42632   -0.90328    0.81959
      H1   -15.73952   -1.21309    1.46723
       H   -11.90580   -2.27471    4.43453
       O   -12.14571   -1.39826    4.46747
      H1   -13.00747   -1.57493    4.80877
       H   -18.92699   -6.70264    0.11265
       O   -19.31269   -6.01473    0.71085
      H1   -18.83727   -5.23342    0.38099
       H    -8.42218   -6.18510   -0.99852
       O    -8.63802   -5.36144   -0.51768
      H1    -7.90776   -5.14728    0.10865
       H   -18.55970   -2.99599   -6.05223
       O   -18.76694   -2.95914   -5.08270
      H1   -17.92015   -2.96881   -4.61424
       H   -14.91123   -4.38295    3.16957
       O   -15.26040   -3.91639    2.39167
      H1   -14.78481   -4.07789    1.56840
       H   -13.69458   -1.39487   -3.85886
       O   -14.25060   -1.28126   -4.63450
      H1   -14.18958   -0.35188   -4.92808
       H   -14.27326    1.77834    1.52800
       O   -14.94460    2.00215    0.87150
      H1   -15.11555    1.08722    0.57493
       H   -13.18734   -6.08653   -8.57808
       O   -13.66783   -6.31903   -7.77950
      H1   -13.28450   -5.71568   -7.07786
       H   -13.03333   -9.54572   -5.17542
       O   -13.02966   -8.88729   -4.48638
      H1   -13.91207   -8.53249   -4.68310
       H   -11.66671   -7.97322   -3.38045
       O   -10.79264   -7.93007   -2.93532
      H1   -10.10422   -8.11892   -3.58333
       H    -7.03691    0.17245   -2.66914
       O    -7.64780    0.90656   -2.35451
      H1    -8.00661    0.56762   -1.50004
       H   -11.18537    2.22347   -1.37485
       O   -12.11178    2.41029   -1.62142
      H1   -12.06730    2.67303   -2.60023
       H   -12.04538   -4.61735   -4.56324
       O   -12.01961   -4.62329   -3.59127
      H1   -11.62986   -3.82053   -3.31469
       H   -11.94701   -3.26591    1.25372
       O   -11.67961   -2.33785    1.23724
      H1   -12.43082   -1.82962    1.61742
       H   -12.05427   -6.06820    1.28958
       O   -11.50284   -5.29165    1.38453
      H1   -10.79120   -5.37748    0.76555
       H   -17.17638   -3.37777    4.61087
       O   -17.60383   -3.09884    3.77674
      H1   -16.97931   -3.37587    3.06323
       H    -8.12826   -1.81935   -0.78627
       O    -8.00144   -1.05231   -0.23834
      H1    -7.99030   -1.44499    0.65968
       H    -9.23705   -5.01797   -6.62150
       O    -9.14755   -4.15303   -7.10313
      H1    -9.04913   -3.47108   -6.39549
       H   -11.87326   -6.68302    4.62763
       O   -12.82884   -6.85976    4.47606
      H1   -12.87419   -7.34991    3.61767
       H   -16.36743   -2.67859   -2.07351
       O   -16.27596   -2.82146   -1.11277
      H1   -17.10410   -3.10145   -0.69832
       H   -12.76980   -6.39706   -1.30402
       O   -13.39848   -6.02430   -1.88575
      H1   -12.90996   -5.30092   -2.37790
       H   -12.74465    0.58653   -2.01434
       O   -13.17534   -0.25249   -2.15993
      H1   -12.58155   -0.90809   -1.83329
       H    -9.86565   -3.18002   -1.77940
       O    -9.03027   -3.24967   -2.19195
      H1    -8.72853   -4.04592   -1.73614
       H   -14.63059    1.30521   -3.47270
       O   -15.21661    1.57639   -2.75302
      H1   -14.75002    1.32267   -1.97154
       H   -12.74293   -9.56888   -1.28688
       O   -12.76414   -9.88416   -0.39307
      H1   -13.25738  -10.73454   -0.51317
       H   -12.49965   -3.80162   -6.75669
       O   -12.04106   -4.50957   -6.25951
      H1   -11.12173   -4.54181   -6.67607
       H   -13.92892   -7.54457    1.21296
       O   -12.98520   -7.70265    1.20425
      H1   -12.95291   -8.56087    0.74858
       H   -13.87769   -4.89633   -0.63612
       O   -13.96821   -3.97254   -0.26723
      H1   -14.77616   -3.52806   -0.56401
       H    -9.28346    0.62776    0.06343
       O    -9.88262    1.36808   -0.03334
      H1    -9.40350    2.13253    0.25856

