129
frame 1 | Written by MDAnalysis XYZWriter (release 2.4.3)
       H    16.80882   14.26557   -6.82960
       O    16.33296   14.68148   -6.11521
      H1    15.37322   14.55307   -6.31519
       H     6.37203   13.27666   -1.42306
       O     5.84608   13.52390   -2.15678
      H1     6.25015   13.13318   -2.97641
       H    13.89711   18.43124   -5.62936
       O    13.96712   18.09999   -6.50309
      H1    13.14818   17.61947   -6.68684
       H    15.46878   10.13184   -3.13051
       O    15.71637   11.09805   -3.26755
      H1    15.06486   11.57283   -2.72105
       H    13.63171   12.08925  -10.75454
       O    13.98917   12.96733  -10.94345
      H1    13.43891   13.64882  -10.55750
       H    14.81815   11.66343   -8.85065
       O    15.08367   12.22937   -8.10474
      H1    14.99473   13.15411   -8.35322
       H     6.43621   13.08287   -5.16184
       O     7.19803   12.76061   -4.58663
      H1     7.08296   11.82559   -4.36046
       H     7.41138    9.48983   -4.85591
       O     7.01542   10.12097   -4.23983
      H1     6.07243    9.99542   -4.34352
       H    12.20529   14.31175   -8.97239
       O    12.57221   14.92593   -9.65036
      H1    11.97058   14.97112  -10.38478
       H    10.86283    8.35214   -1.68608
       O    10.50804    9.23694   -1.47944
      H1    10.75475    9.61059   -0.60376
       H     8.58701   10.07384   -1.45125
       O     7.76241   10.48900   -1.52922
      H1     7.60469   10.47965   -2.45040
       H    10.94088   12.67310   -9.83900
       O    10.15317   13.34583   -9.91352
      H1    10.05912   13.56847  -10.84332
       H    12.03365   10.67610   -9.98034
       O    12.08277   11.46400   -9.35630
      H1    11.46400   11.20129   -8.64325
       H    11.09370   16.76950   -6.11005
       O    11.49880   16.22779   -6.80464
      H1    11.86531   15.56196   -6.22243
       H     9.73178   11.46349    1.32768
       O    10.32138   11.14723    0.63084
      H1    10.26004   11.80097   -0.07959
       H    10.50322   16.24676   -8.47541
       O     9.62446   16.02557   -8.76726
      H1     9.70904   15.37507   -9.49943
       H     6.15294   16.97900   -2.58276
       O     6.92682   17.60546   -2.41044
      H1     7.57982   17.52838   -3.07524
       H     5.85884   16.72186   -8.91320
       O     6.52506   16.88374   -9.61166
      H1     7.31867   16.36249   -9.46659
       H    12.73695   11.09684   -2.94938
       O    12.28511   10.34012   -3.35208
      H1    11.56161   10.19022   -2.69556
       H     7.91810   16.15383   -1.33202
       O     8.45457   15.71014   -0.68878
      H1     8.19562   16.17290    0.13028
       H    10.08116    8.08858   -7.46311
       O    10.47862    7.36023   -7.97949
      H1     9.86392    6.59786   -7.93491
       H     8.67424   19.11220   -8.19035
       O     8.99273   18.54669   -7.45760
      H1     9.11450   17.69609   -7.96081
       H    11.60736   10.17935   -6.19426
       O    11.10787   10.56686   -6.95940
      H1    10.43220   11.06564   -6.46156
       H     8.94500   12.88278   -5.04976
       O     9.87426   12.63572   -5.33324
      H1    10.14661   13.40288   -5.83601
       H     8.24946   12.85057   -9.64861
       O     7.41607   12.38191   -9.93261
      H1     6.91107   13.00070  -10.48079
       H     8.53804    7.77578   -5.71041
       O     7.96230    8.40748   -6.17582
      H1     7.38753    7.92954   -6.77003
       H    14.29239   15.23744   -9.14297
       O    15.20102   15.04193   -8.96455
      H1    15.66284   15.86245   -8.85592
       H    11.93104   16.11151   -1.03888
       O    12.08738   16.64239   -0.26114
      H1    12.21135   15.97747    0.40110
       H    11.63640   15.62267   -3.17809
       O    12.14353   15.10499   -2.49116
      H1    11.48362   14.43984   -2.17099
       H     6.19355   10.55643   -9.00055
       O     5.28562   10.34267   -8.64835
      H1     4.76570   10.35779   -9.48947
       H     8.58139    9.57891  -10.90053
       O     8.21669   10.24289  -11.51822
      H1     7.88097   10.99518  -10.99188
       H    11.17376   13.66976   -0.31177
       O    10.42329   13.48679   -0.84082
      H1     9.76627   14.16012   -0.57748
       H    14.87916   11.57615   -4.91958
       O    14.14158   11.69014   -5.53030
      H1    14.56836   11.91812   -6.37337
       H    13.73229    9.88600   -5.78658
       O    13.09701    9.17221   -5.76609
      H1    12.78993    9.30360   -4.84517
       H     7.01022   17.02329   -5.13515
       O     7.97511   16.84760   -5.15422
      H1     8.35318   17.46540   -5.79866
       H    14.39110   16.59621   -5.52440
       O    14.56956   16.27303   -4.66482
      H1    13.80495   15.70837   -4.39536
       H     3.97209   14.87858   -4.48249
       O     4.03572   14.73490   -5.45162
      H1     3.98054   13.82055   -5.73188
       H    10.61329   17.42853   -3.56005
       O    10.42780   16.66732   -4.07213
      H1     9.44518   16.72076   -4.29259
       H     5.97350   13.24925   -7.73387
       O     5.35678   12.84209   -7.14765
      H1     5.27513   11.95480   -7.50983
       H    13.30796   13.56348   -2.54740
       O    13.64712   12.88936   -1.98698
      H1    13.18090   12.95139   -1.13039
       H    13.66415    9.20685   -3.08091
       O    14.56470    8.86198   -2.95511
      H1    14.55731    8.61363   -2.01311
       H     9.95969    6.05801   -4.79118
       O    10.08121    7.01266   -4.88427
      H1    10.50060    7.14937   -5.77565
       H    13.22021   13.31348   -5.12006
       O    12.73201   14.13014   -5.03271
      H1    12.12319   13.99593   -4.32030

