129
frame 6 | Written by MDAnalysis XYZWriter (release 2.4.3)
       H     7.16841  -18.84292   -4.12287
       O     6.84301  -19.55942   -4.65197
      H1     5.88655  -19.63494   -4.61863
       H     9.70681  -12.70705   -0.31161
       O     9.02716  -12.57158   -1.02985
      H1     8.62776  -11.69754   -0.93331
       H    11.37096  -14.13836    2.52609
       O    11.61614  -14.37131    3.44452
      H1    11.48438  -15.30452    3.49113
       H     0.27095  -16.69992    2.27027
       O     1.26916  -16.87167    2.35267
      H1     1.70680  -16.05799    2.61163
       H     8.76134  -13.47446    7.39471
       O     8.21962  -14.04055    6.82033
      H1     8.45123  -13.80214    5.89141
       H     8.72349  -16.85193   -0.13326
       O     9.02956  -16.35407    0.67929
      H1     8.76072  -16.90716    1.41219
       H     2.44920  -14.47449    1.62394
       O     2.76575  -14.53334    2.54186
      H1     3.69677  -14.93145    2.34186
       H     8.23783  -13.94968   -2.45850
       O     7.84243  -14.59660   -3.00312
      H1     8.37681  -14.62004   -3.85460
       H     9.67412  -20.13499    1.80060
       O    10.07814  -19.39759    1.27633
      H1    10.27012  -18.72023    1.92201
       H     9.11728  -17.91008   -1.54135
       O     8.19053  -17.85468   -1.29661
      H1     7.70578  -17.63141   -2.07482
       H     4.76445  -13.41381   -2.53181
       O     4.09357  -12.70510   -2.78951
      H1     3.57115  -13.23805   -3.38035
       H     4.42813  -18.67088    5.15711
       O     4.47735  -19.61914    5.46062
      H1     4.08316  -20.11767    4.66707
       H     8.98104  -12.91936    3.98314
       O     8.32902  -13.61983    3.99328
      H1     8.04065  -13.65323    3.04473
       H     6.32219  -16.04215   -6.03354
       O     5.64560  -16.70889   -5.98203
      H1     4.82833  -16.41369   -6.42097
       H     2.24555  -15.36406   -0.49550
       O     1.96285  -14.53795   -0.03133
      H1     2.55091  -13.85161   -0.33323
       H    13.67644  -13.68174   -0.18435
       O    12.82069  -13.83193   -0.59086
      H1    12.45762  -14.56998   -0.11148
       H     5.69220  -16.51425    1.42857
       O     5.48733  -15.67939    1.85318
      H1     6.02686  -15.06991    1.36970
       H     8.12740  -14.75383    1.11624
       O     7.75476  -13.85789    1.25183
      H1     8.09814  -13.38544    0.51910
       H     7.76833  -18.66311   -6.47518
       O     8.65560  -18.27306   -6.61590
      H1     8.72141  -18.43943   -7.57385
       H     6.84394  -16.14759   -3.28284
       O     6.40561  -16.98086   -3.22547
      H1     6.29619  -17.18645   -4.24781
       H     4.18366  -17.47044    7.23470
       O     4.19728  -17.40150    8.23725
      H1     4.48111  -18.25876    8.56096
       H     0.93467  -18.24968   -4.41736
       O     1.05514  -17.94880   -3.49101
      H1     0.16400  -17.89847   -3.11604
       H     5.02569  -18.44156    0.81295
       O     5.95962  -18.28881    0.72989
      H1     6.20092  -18.05709   -0.13751
       H     4.52927  -15.88160    4.83524
       O     4.27230  -16.81858    5.08044
      H1     3.54681  -17.02480    4.48303
       H    11.19950  -18.71708   -2.20316
       O    10.82646  -17.87954   -1.84733
      H1    11.20225  -17.15409   -2.31771
       H    -1.66283  -15.85265    1.50530
       O    -1.42945  -16.13857    2.38541
      H1    -1.13254  -15.34817    2.88215
       H    11.72645  -16.92437   -0.62522
       O    11.70741  -16.28159    0.14198
      H1    10.72349  -16.15048    0.34643
       H     3.87431  -16.65836   -1.81138
       O     3.77662  -16.19823   -2.65155
      H1     4.64050  -16.43921   -3.00388
       H    -0.82407  -13.12613   -0.81153
       O    -0.27679  -13.82665   -1.24546
      H1     0.42231  -14.09891   -0.63096
       H     5.93414  -13.82242    4.56369
       O     5.19585  -14.41204    4.29950
      H1     5.50148  -14.92999    3.54389
       H     2.76722  -15.30312   -3.64261
       O     2.51840  -14.53170   -4.24379
      H1     1.69789  -14.13237   -3.96533
       H    10.00733  -19.13053    5.05364
       O     9.29801  -18.64523    5.44924
      H1     9.56162  -18.20369    6.22132
       H     3.54569  -12.56014    5.24668
       O     2.74287  -12.58800    4.72165
      H1     2.87624  -13.21105    4.03224
       H     2.18044  -16.95106    0.56303
       O     2.76623  -17.05387   -0.19464
      H1     2.27135  -17.65584   -0.79701
       H    11.43653  -16.81931    2.04316
       O    11.30956  -17.22028    2.97235
      H1    10.39484  -17.04018    3.12924
       H     0.35825  -17.68362    5.00294
       O     0.37362  -18.36524    4.33652
      H1     0.72182  -17.93982    3.51973
       H    10.98472  -20.08595   -4.39273
       O    10.52797  -20.03483   -5.25070
      H1    10.07833  -19.13067   -5.23809
       H     1.84838  -11.46372   -0.41334
       O     2.70960  -11.87443   -0.48440
      H1     2.94513  -11.85927   -1.43197
       H    10.45618  -12.25662    1.69883
       O    10.78495  -12.80653    0.95343
      H1    11.70258  -12.71270    0.82592
       H     8.81437  -17.23041    4.31958
       O     8.76865  -16.79120    3.45862
      H1     8.65828  -15.91083    3.69922
       H     9.21263  -15.71012    7.44872
       O     9.88355  -16.44545    7.60084
      H1    10.76052  -16.00450    7.66989
       H     6.87808  -15.25668    7.38620
       O     6.68194  -15.97926    8.00545
      H1     5.74121  -16.21456    7.93141
       H     4.87013  -10.03554    1.19524
       O     4.50871  -10.04758    0.31654
      H1     3.90280  -10.78587    0.30482

