129
frame 4 | Written by MDAnalysis XYZWriter (release 2.4.3)
       H   -20.07891  -12.36657   13.99088
       O   -19.28180  -12.85010   13.67055
      H1   -19.18645  -13.53033   14.26604
       H   -13.74267  -11.48108    9.96554
       O   -13.69309  -12.23104    9.37259
      H1   -13.55400  -11.84168    8.50238
       H   -15.97800  -12.06378   -0.66182
       O   -16.57190  -12.04443   -1.41291
      H1   -16.95362  -12.91809   -1.43645
       H   -17.97532  -10.21632   12.28345
       O   -17.81399  -11.15306   12.02639
      H1   -18.42229  -11.65260   12.60904
       H   -15.79734   -8.99307    2.41474
       O   -15.26361   -8.61434    1.71424
      H1   -15.72799   -8.37846    0.95691
       H   -16.17509  -19.20909    6.70353
       O   -16.77899  -18.48111    6.96202
      H1   -17.05924  -18.86530    7.77153
       H   -13.44392   -7.65160    8.57038
       O   -14.32828   -8.01602    8.83190
      H1   -14.85458   -7.23854    9.01704
       H   -17.71309  -11.89999    1.58401
       O   -18.38035  -11.25476    1.31213
      H1   -18.30388  -10.47342    1.93780
       H   -16.98634   -7.50165   11.73871
       O   -17.72971   -8.13560   11.84430
      H1   -18.23991   -8.11612   11.03674
       H   -17.53250  -15.33861    5.70570
       O   -18.17129  -14.72181    6.15334
      H1   -18.95237  -15.26381    6.38767
       H   -15.90215   -8.44201    5.81611
       O   -15.21219   -8.93633    6.27259
      H1   -15.25733   -8.54931    7.19343
       H   -17.50729  -14.33758    2.21241
       O   -17.17624  -13.43755    2.51762
      H1   -16.98543  -13.60658    3.42511
       H   -17.85343  -15.52056   11.62701
       O   -17.13892  -15.10734   12.13446
      H1   -17.45021  -14.27408   12.49844
       H   -16.07071  -17.83229   -0.24478
       O   -15.69478  -17.02756    0.15987
      H1   -15.20831  -17.25417    0.91017
       H   -15.44855  -17.45458    3.73783
       O   -15.33846  -18.05163    2.93018
      H1   -14.88770  -18.87393    3.28710
       H   -15.03820  -13.25823    9.04951
       O   -15.66503  -14.04601    8.97948
      H1   -15.31940  -14.74714    9.58621
       H   -15.07407  -12.91484   12.69071
       O   -15.34771  -11.98061   12.74469
      H1   -16.19449  -11.77777   12.32074
       H   -18.48689  -13.04001    6.66903
       O   -18.75194  -12.40424    7.34621
      H1   -18.33829  -12.73569    8.17516
       H   -11.38438  -11.19865    4.69494
       O   -11.17063  -11.15281    3.71244
      H1   -10.37371  -11.72835    3.64405
       H   -15.82530  -12.84120    1.39494
       O   -15.14997  -12.59400    0.79644
      H1   -14.59738  -11.90202    1.22318
       H   -17.66590   -9.36864    4.33348
       O   -17.36568   -8.97367    3.47596
      H1   -18.17334   -8.55488    3.13015
       H   -14.34487  -14.89149   12.45555
       O   -14.14957  -14.37910   13.23936
      H1   -14.66038  -14.72549   14.00117
       H   -12.65697  -18.63668    7.38679
       O   -12.86947  -18.17440    8.17421
      H1   -13.39239  -18.77872    8.75472
       H   -14.68633   -9.71632   11.55582
       O   -14.34509   -9.90039   10.70457
      H1   -14.34509   -9.09094   10.10967
       H   -18.71964  -11.20574    6.11804
       O   -18.80901  -10.52313    5.40146
      H1   -19.27242  -11.00823    4.66849
       H   -19.77341  -19.08963   10.93051
       O   -19.02831  -18.69969   11.48895
      H1   -19.38894  -18.43937   12.31871
       H   -13.90423  -10.01433    2.13445
       O   -13.47544  -10.85023    2.26001
      H1   -12.65152  -10.80960    2.72654
       H   -18.08912  -15.18157   -0.56314
       O   -18.11868  -15.95090    0.03294
      H1   -17.21689  -16.15098    0.24976
       H   -18.44345  -18.86647    6.06346
       O   -19.41600  -18.66900    5.90795
      H1   -19.66483  -18.79428    5.00388
       H   -14.39162  -12.15062    3.64487
       O   -14.68484  -12.64622    4.39085
      H1   -14.46168  -12.09208    5.17091
       H   -17.06447  -13.23953    9.61437
       O   -17.93201  -12.78471    9.79652
      H1   -17.73496  -11.99460   10.28294
       H   -19.31857   -8.90833    6.01534
       O   -19.79031   -8.38642    6.68015
      H1   -19.65307   -7.42209    6.58753
       H   -19.23219  -16.99207   10.59544
       O   -19.18628  -16.03979   10.75443
      H1   -19.10169  -15.61974    9.89763
       H   -13.69882  -16.30129    7.47129
       O   -14.05168  -15.50130    7.02559
      H1   -14.72890  -15.06493    7.64638
       H   -16.18220  -17.09696    5.65955
       O   -15.80889  -16.42230    5.13080
      H1   -15.16164  -16.05873    5.71813
       H   -12.35945  -13.07611    8.53723
       O   -11.46867  -13.30028    8.13436
      H1   -11.73074  -13.55767    7.23366
       H   -17.97555  -16.64525   13.39977
       O   -18.86602  -16.87678   13.76905
      H1   -18.72515  -17.69051   14.26820
       H   -14.14352  -10.54661    6.41598
       O   -13.62250  -11.34308    6.57498
      H1   -12.72726  -11.16696    6.19216
       H   -12.92054  -13.62280    5.26780
       O   -12.08744  -13.99458    5.64403
      H1   -12.49567  -14.75076    6.12800
       H   -13.92044  -15.71087    3.68015
       O   -12.96327  -15.90829    3.72041
      H1   -12.50299  -15.02475    3.97979
       H   -16.06853   -5.81172    5.43722
       O   -16.97671   -5.96569    5.07957
      H1   -16.99136   -6.04763    4.14100
       H   -18.73493   -5.98576    5.59912
       O   -19.59478   -5.81628    5.96141
      H1   -20.20798   -6.02236    5.24828
       H   -15.71535  -15.32957   11.34072
       O   -14.96390  -15.71578   10.89881
      H1   -14.88878  -16.64279   11.21551

