129
frame 7 | Written by MDAnalysis XYZWriter (release 2.4.3)
       H   -13.92664   13.67641    3.06268
       O   -14.46457   14.24994    3.57160
      H1   -14.14838   15.14715    3.39200
       H   -12.77398   17.99192   -0.58395
       O   -13.12718   18.65447    0.00824
      H1   -12.76738   19.45103   -0.44386
       H   -11.39307   16.31427   -2.46512
       O   -11.77844   16.39791   -1.56582
      H1   -11.15829   16.11641   -0.88201
       H    -1.90420   13.36581    3.44757
       O    -2.27597   14.27131    3.37844
      H1    -2.89220   14.36694    2.57408
       H    -9.41667   19.97054    1.32447
       O    -9.54881   19.06378    1.06587
      H1   -10.47005   18.79565    1.31498
       H    -5.50657   18.60498    5.22798
       O    -6.03991   17.81180    5.07450
      H1    -5.91236   17.66283    4.11292
       H    -8.47920   16.37474    8.71289
       O    -8.90555   16.19124    7.82427
      H1    -8.74952   16.87511    7.14513
       H   -11.43188   19.71484   -5.07633
       O   -10.79515   18.98592   -4.86188
      H1   -11.22470   18.22550   -5.25278
       H   -13.01937   15.47161   -2.23979
       O   -13.79292   14.99427   -2.62643
      H1   -14.46090   15.72124   -2.62434
       H    -8.51814   10.27293    0.76448
       O    -8.14382   11.18791    0.87095
      H1    -8.43215   11.82153    0.14324
       H    -2.79246   18.12598    2.82760
       O    -1.91880   18.40719    3.13563
      H1    -1.31992   17.65997    2.85948
       H   -12.60318   18.64327    3.95022
       O   -13.12705   19.13078    4.59261
      H1   -13.73551   18.37238    4.81590
       H    -5.20331   18.89417   -2.38091
       O    -5.85225   19.58805   -2.07828
      H1    -5.81051   20.40674   -2.58412
       H    -9.41936   17.09544    4.82020
       O    -8.79572   17.57435    5.38162
      H1    -7.94086   17.30853    5.05817
       H   -12.40294   18.18529    1.56290
       O   -11.79114   18.24536    2.33393
      H1   -11.42394   17.38648    2.50914
       H   -10.38542   15.13613   -4.07842
       O   -10.59022   16.05711   -4.15758
      H1    -9.78342   16.47824   -3.93010
       H    -9.77513   19.61053   -0.91224
       O    -9.51511   19.87476   -1.75775
      H1   -10.01020   19.43777   -2.45515
       H   -14.57899   15.68456   -0.26893
       O   -15.37977   15.79477    0.29858
      H1   -16.10916   16.03431   -0.30207
       H    -8.37743   12.28118    3.34731
       O    -8.02763   11.46788    3.64175
      H1    -8.04300   10.97257    2.81550
       H   -16.36902   18.48317    0.85575
       O   -16.08546   18.97156    0.09182
      H1   -15.16747   18.78190   -0.01904
       H   -12.24557   12.61052    1.05949
       O   -12.95439   12.41618    1.73030
      H1   -13.49616   11.71390    1.33275
       H   -10.11431   15.51832    3.69382
       O   -10.70049   16.20760    3.99020
      H1   -11.38924   15.78079    4.52545
       H    -7.23862   16.32580   -1.76242
       O    -6.76413   16.07405   -0.94933
      H1    -6.41115   15.16597   -1.20643
       H    -7.57112   13.50894   -1.11955
       O    -8.52857   13.37049   -1.16632
      H1    -8.81619   13.20194   -2.10448
       H    -7.69805   16.96918   -4.15903
       O    -7.94309   17.24856   -3.26387
      H1    -7.48954   18.07500   -3.15008
       H    -7.01418   17.97474    6.81503
       O    -6.93038   18.30939    7.73982
      H1    -7.13658   19.20653    7.73661
       H    -4.84909   14.08349    1.99752
       O    -4.17460   14.67897    1.63723
      H1    -4.41619   15.55795    1.92078
       H    -4.80750   11.76824    3.38177
       O    -5.33041   11.96731    2.61162
      H1    -6.25604   11.98761    2.92250
       H   -16.03882   17.95463    2.60670
       O   -15.29024   17.36625    2.72697
      H1   -15.37428   16.62624    2.12870
       H    -6.61230   10.56754   -0.31563
       O    -5.79404   10.71863   -0.71934
      H1    -5.59617   11.63062   -0.58100
       H    -9.85163   13.18812    3.72178
       O    -9.38315   13.85341    3.22324
      H1    -9.96082   14.00895    2.50924
       H    -5.36616   19.39790   -0.26412
       O    -4.89664   18.88663    0.42645
      H1    -4.53431   19.53197    1.08298
       H   -11.40614   11.76768    4.42927
       O   -11.04591   12.50844    4.98538
      H1   -10.42067   12.11054    5.65542
       H    -1.32761   18.36167   -0.17895
       O    -2.06074   18.48059   -0.82885
      H1    -2.88053   18.36468   -0.31828
       H    -5.03490   13.33446   -1.50733
       O    -5.50989   13.62682   -0.64360
      H1    -4.90339   13.94212    0.00795
       H    -6.48686   16.88705    2.04483
       O    -5.57425   16.99611    2.38605
      H1    -5.34207   17.75220    1.88575
       H    -3.67478   16.80646   -2.79946
       O    -4.57704   17.08713   -2.65998
      H1    -4.86225   16.63187   -1.85761
       H   -11.10476   13.60787   -0.86287
       O   -11.63473   12.81750   -0.74536
      H1   -12.50175   13.11235   -1.02710
       H    -7.50394   16.63237    0.56208
       O    -7.95404   16.96336    1.39326
      H1    -8.40139   17.83021    1.21715
       H   -12.52549   14.22140    5.95143
       O   -12.51632   15.22825    5.87673
      H1   -13.28116   15.64815    6.22756
       H    -5.40050   16.70781    6.60357
       O    -5.01286   15.90852    6.92630
      H1    -5.62067   15.38081    7.50174
       H   -10.58339   12.91349   -3.77599
       O    -9.82187   13.53700   -3.86252
      H1    -9.04773   13.01392   -4.24363
       H    -9.09258   14.76157   -0.14832
       O    -9.79843   15.30950    0.25818
      H1    -9.25180   15.86845    0.77273

