129
frame 3 | Written by MDAnalysis XYZWriter (release 2.4.3)
       H    -4.97849   -4.29080  -11.11781
       O    -4.72100   -4.35821  -10.17498
      H1    -4.11140   -3.67648   -9.95219
       H   -10.17266   -0.87483  -10.69208
       O   -10.37257   -0.37520  -11.49427
      H1   -11.09827   -0.95786  -11.86860
       H    -4.71053   -2.72493   -7.09226
       O    -4.04855   -2.08798   -7.48896
      H1    -4.42061   -1.55498   -8.18887
       H    -9.02596   -4.55634  -16.33833
       O    -9.45735   -5.26599  -16.86849
      H1    -9.84623   -4.87015  -17.64974
       H    -9.20332   -1.42752   -8.70592
       O    -9.36814   -1.96777   -9.45580
      H1    -8.61574   -1.96609  -10.05896
       H    -3.14971   -5.54259   -5.83314
       O    -4.06323   -5.67227   -6.05901
      H1    -4.18996   -5.99889   -6.97898
       H    -9.12144   -0.09855  -16.67936
       O    -9.73659   -0.76461  -16.90239
      H1   -10.52911   -0.30375  -17.24972
       H   -12.91616   -6.49236   -9.57514
       O   -13.63568   -5.91006   -9.23752
      H1   -13.24333   -5.05855   -9.46709
       H    -6.35447   -4.48353   -9.09701
       O    -6.83232   -4.93377   -8.37548
      H1    -7.12347   -5.74028   -8.76894
       H    -8.16765   -4.04051   -4.09150
       O    -8.03966   -3.30311   -4.71233
      H1    -7.19306   -3.42500   -5.17637
       H   -13.33559   -1.08008   -9.00642
       O   -12.42052   -1.16054   -9.19977
      H1   -12.36044   -0.55092  -10.00646
       H    -6.44378    1.62525   -7.89247
       O    -6.28133    0.71458   -7.61124
      H1    -5.83524    0.83842   -6.74455
       H    -1.94679   -2.55690  -13.92393
       O    -1.24506   -2.70659  -14.47561
      H1    -0.84387   -3.54902  -14.22721
       H   -10.15007   -5.38702   -6.41955
       O    -9.68461   -6.13487   -6.02006
      H1    -9.72936   -6.86432   -6.63116
       H   -13.27773   -2.20271  -12.09873
       O   -12.46290   -2.06230  -12.64304
      H1   -12.68920   -1.55619  -13.40513
       H   -11.14685   -6.55875  -14.77981
       O   -11.36346   -5.63793  -14.97583
      H1   -10.78851   -5.25459  -15.66080
       H    -7.64114    0.96605  -12.42271
       O    -7.98430    0.14382  -12.90105
      H1    -8.88767    0.04018  -12.55174
       H    -1.45962   -3.73186   -8.79184
       O    -2.23757   -3.22971   -9.14460
      H1    -2.80728   -3.00438   -8.36440
       H   -11.67962   -7.86187   -9.31465
       O   -11.15883   -7.22322   -9.86993
      H1   -11.54990   -7.42767  -10.72564
       H   -10.21297    3.28991  -10.11379
       O    -9.77333    3.06221   -9.24099
      H1   -10.29675    2.32619   -8.89462
       H    -7.47666   -2.84246  -11.31673
       O    -7.01084   -1.99855  -11.17539
      H1    -7.26999   -1.42388  -11.88734
       H    -7.08111   -8.30305  -12.19929
       O    -7.60405   -8.23617  -13.02775
      H1    -7.36785   -7.36565  -13.43055
       H    -7.72057   -8.05037  -10.13630
       O    -7.13296   -7.28888  -10.03104
      H1    -6.35672   -7.69059   -9.57715
       H   -10.94958   -3.39111  -12.63045
       O   -10.40147   -3.79904  -13.30430
      H1   -10.89299   -4.50923  -13.69140
       H    -9.38534   -2.50130  -15.94033
       O    -8.76897   -2.99275  -15.35183
      H1    -9.30611   -3.11105  -14.55052
       H    -4.37250   -5.86983   -9.06363
       O    -4.34185   -6.68919   -8.57689
      H1    -3.53930   -7.18630   -8.80186
       H    -2.83051    0.67252  -11.45422
       O    -1.89714    0.78319  -11.41242
      H1    -1.57991    0.37205  -10.61375
       H    -8.53040   -0.33740   -6.64773
       O    -9.39725   -0.43111   -7.07384
      H1    -9.83419   -1.16953   -6.56511
       H    -9.23984    1.25526  -13.36423
       O    -9.96502    1.82240  -13.70336
      H1   -10.26144    2.41183  -12.97180
       H   -10.96938   -3.69255  -10.02334
       O   -11.91600   -3.63985  -10.15120
      H1   -12.09102   -2.77149   -9.88921
       H    -4.01464    0.79932  -10.01143
       O    -4.21584    1.73535  -10.32341
      H1    -5.17671    1.75106  -10.19050
       H    -0.99662   -0.22283   -8.40317
       O    -1.13667   -0.71689   -9.25326
      H1    -1.46257   -1.58703   -9.02928
       H    -3.15799   -5.77605  -11.00843
       O    -2.53246   -6.44691  -11.33534
      H1    -2.48556   -6.42515  -12.30232
       H    -9.46337   -3.08161   -6.34030
       O   -10.39121   -3.04379   -6.64820
      H1   -10.35749   -2.84202   -7.58642
       H    -3.22723   -5.72865  -14.64822
       O    -3.76644   -6.24165  -14.01518
      H1    -4.73099   -6.13991  -14.34272
       H    -9.05759   -4.51812  -12.30288
       O    -8.31315   -4.42647  -11.67550
      H1    -8.27586   -5.18400  -11.11955
       H   -12.03887   -0.26243  -15.25354
       O   -12.33041    0.46670  -14.65092
      H1   -11.52629    0.84884  -14.28105
       H    -5.64418   -0.31809   -8.89015
       O    -5.04945   -0.75844   -9.48861
      H1    -5.58014   -1.26610  -10.09089
       H    -6.27358   -3.09055  -15.01547
       O    -5.64670   -3.72204  -14.73379
      H1    -5.30027   -4.23372  -15.45465
       H    -6.52174   -5.41699  -14.61732
       O    -6.42530   -6.37331  -14.54406
      H1    -6.97785   -6.70624  -15.28167
       H    -7.90474    2.71246  -10.86995
       O    -7.18769    2.35489  -11.37492
      H1    -7.18345    2.85996  -12.21245
       H   -11.86452    0.57180   -7.84957
       O   -11.37979    1.28208   -7.37663
      H1   -10.50324    0.85002   -7.22026
       H    -5.17003   -4.38839   -6.22884
       O    -5.74381   -3.62766   -6.24880
      H1    -6.41726   -3.94427   -6.88167

