129
frame 1 | Written by MDAnalysis XYZWriter (release 2.4.3)
       H   -17.70786   12.14540  -11.14600
       O   -17.93018   11.31228  -11.55376
      H1   -18.32108   10.69475  -10.88984
       H   -11.17708   11.24616  -14.31750
       O   -12.02161   11.56996  -14.66063
      H1   -12.38280   12.11080  -13.93580
       H   -13.98098   13.36259  -13.48998
       O   -13.90215   12.65773  -12.84994
      H1   -14.54122   12.01123  -13.11587
       H   -14.93530   15.52470  -13.09064
       O   -15.05556   15.77381  -12.14985
      H1   -15.52721   15.04719  -11.75870
       H   -10.33567   15.81366   -9.68087
       O   -10.98847   15.44371  -10.31161
      H1   -10.97871   16.00755  -11.06756
       H   -18.53219   17.43588  -12.48200
       O   -18.56183   17.08703  -13.38600
      H1   -18.14762   17.71191  -13.99716
       H   -14.92050   19.73330  -16.86864
       O   -15.15220   18.82448  -16.73461
      H1   -15.18735   18.58361  -17.69059
       H   -19.84826   19.73801  -18.45617
       O   -19.28728   19.29877  -19.06994
      H1   -18.50770   19.85643  -19.01837
       H   -10.91125   15.77435  -13.78703
       O   -11.46686   15.42809  -14.50085
      H1   -10.84086   15.00265  -15.05876
       H   -14.23124   10.68342  -19.68141
       O   -15.09289   10.42478  -19.29748
      H1   -15.04114    9.40984  -19.44252
       H   -16.97344   10.78656  -18.79189
       O   -17.67617   11.21249  -18.35746
      H1   -17.56553   10.87049  -17.43963
       H   -10.80179   17.50142  -13.22702
       O   -10.43358   17.06164  -12.47501
      H1    -9.50489   17.28374  -12.47609
       H   -17.53455   14.38037  -15.23579
       O   -18.29031   14.58933  -14.77794
      H1   -18.10808   15.15995  -14.05305
       H   -13.38988   15.14030  -14.76253
       O   -14.28502   14.87463  -14.60514
      H1   -14.62560   14.71656  -15.51305
       H   -11.77401   11.22043  -16.42971
       O   -11.44155   10.69738  -17.17151
      H1   -11.26396    9.80906  -16.84459
       H   -18.39034   14.19244  -10.41714
       O   -17.45688   14.08669  -10.48838
      H1   -17.24361   13.89531   -9.53706
       H    -7.72396   17.50475  -16.26207
       O    -8.51882   17.05281  -15.88067
      H1    -9.07939   17.74012  -15.41723
       H   -12.40317   16.07016  -10.23368
       O   -13.19374   16.65842  -10.11748
      H1   -13.88973   16.40072  -10.74637
       H   -13.34295   16.67279  -19.77032
       O   -13.70222   16.30899  -18.96667
      H1   -14.58914   16.04662  -19.22817
       H   -12.36719   17.18187  -17.83765
       O   -11.81020   17.16089  -17.05844
      H1   -11.62300   16.23535  -16.95798
       H   -13.59919   12.98057  -18.71372
       O   -13.22096   13.49539  -17.98989
      H1   -13.32182   14.40443  -18.27413
       H   -18.55442    9.79679  -15.68850
       O   -17.67150    9.60462  -16.07431
      H1   -17.15308    9.22723  -15.33586
       H   -15.71623   20.16921  -11.17585
       O   -15.41963   19.38777  -10.73898
      H1   -16.23264   18.98095  -10.42510
       H    -9.08547   15.13762  -16.54861
       O    -9.64893   14.44342  -16.79333
      H1    -9.24519   13.63699  -16.46883
       H   -12.01865   10.89857  -18.84319
       O   -12.52413   11.08757  -19.65689
      H1   -12.15578   11.95223  -19.98654
       H    -9.30620   16.92096  -17.93831
       O    -9.35454   16.79607  -18.91223
      H1    -9.50212   17.52237  -19.44459
       H   -15.80826   11.33755  -14.84039
       O   -15.95541   11.10737  -13.92482
      H1   -16.77880   11.45003  -13.70742
       H   -18.74566   14.33433  -17.21063
       O   -18.51949   13.97711  -18.04809
      H1   -18.10830   13.19471  -17.73156
       H   -18.00805   18.13974  -16.28422
       O   -17.55978   18.67888  -15.64392
      H1   -16.63966   18.59490  -16.01022
       H   -18.69966   17.44156   -8.73000
       O   -19.26748   16.84783   -8.28222
      H1   -18.78304   16.46781   -7.51924
       H   -18.95564   18.89362  -10.45073
       O   -18.07483   18.90726   -9.91000
      H1   -18.18911   19.57500   -9.23847
       H   -13.93622   18.28052   -7.51892
       O   -13.98303   17.32227   -7.37942
      H1   -13.81417   17.14356   -8.32085
       H   -12.33358   18.03481  -15.55583
       O   -12.26853   18.37639  -14.66861
      H1   -13.18882   18.53872  -14.41186
       H   -15.01123   13.47107  -17.15605
       O   -15.88984   13.78664  -16.93823
      H1   -16.25451   14.25049  -17.65320
       H   -14.51379   10.89989  -17.12099
       O   -14.70534   10.42450  -16.34178
      H1   -13.89658   10.18945  -15.83492
       H   -10.73924   18.96615  -14.56638
       O    -9.78407   19.17175  -14.62591
      H1    -9.67924   20.05102  -14.21753
       H   -11.36363   18.54792  -11.65402
       O   -12.12563   19.00419  -11.20989
      H1   -12.79602   18.33904  -10.93321
       H   -14.87473   17.39041  -13.47227
       O   -14.83836   18.38851  -13.32900
      H1   -15.06956   18.54787  -12.41058
       H   -14.99838    8.33126  -13.46468
       O   -15.51000    8.46578  -14.26248
      H1   -15.73493    9.41526  -14.19076
       H    -9.61066   15.03269  -19.44518
       O    -9.62835   14.08275  -19.66736
      H1    -9.53335   13.72929  -18.76500
       H   -10.07874   19.33839  -16.28998
       O   -10.23252   19.31689  -17.25908
      H1   -10.83204   18.53710  -17.39889
       H   -16.16649   14.95665  -19.77733
       O   -16.59196   15.51873  -19.13259
      H1   -17.34463   15.03575  -18.83341
       H   -15.81389    9.31463  -10.64675
       O   -15.33280    9.86759  -11.27656
      H1   -16.00490   10.46275  -11.60830

