129
frame 9 | Written by MDAnalysis XYZWriter (release 2.4.3)
       H     1.66590   -1.62585   18.86652
       O     1.99421   -1.81525   17.97207
      H1     2.18329   -2.75177   17.81053
       H     1.73566   -6.95431   13.92271
       O     2.30221   -6.53211   14.60366
      H1     3.19668   -6.56069   14.34327
       H    -3.23989   -4.53777   11.74451
       O    -3.07347   -4.05289   10.93731
      H1    -3.68436   -4.22724   10.21210
       H    -2.28890  -13.85801   17.17874
       O    -2.92564  -13.81701   16.43496
      H1    -2.56640  -14.14879   15.61601
       H    -0.11273   -7.19659   12.43149
       O     0.80205   -6.88921   12.31272
      H1     0.90221   -6.29680   11.54006
       H    -0.93821  -14.90424   18.58551
       O    -1.43505  -14.05187   18.55380
      H1    -0.67845  -13.55364   18.17758
       H     4.66329   -4.76607   16.25964
       O     5.15304   -3.87670   16.17483
      H1     6.04654   -3.99630   15.79535
       H    -3.31625   -7.70238   10.83097
       O    -2.51129   -7.24395   10.35189
      H1    -2.62139   -6.28645   10.26548
       H    -2.01385   -9.16686   12.64483
       O    -1.43469   -8.45095   12.40305
      H1    -1.99326   -7.93462   11.65271
       H    -7.16753   -7.64637   15.72397
       O    -7.25222   -6.67609   15.67363
      H1    -7.83776   -6.47266   14.91460
       H    -1.96996  -11.60827   13.37427
       O    -2.11728  -10.72732   13.73784
      H1    -1.47793  -10.48409   14.41818
       H     0.01988   -3.14499   14.30538
       O    -0.86269   -3.16884   13.86973
      H1    -1.20053   -2.23680   14.06250
       H    -4.93439  -10.99639   15.59667
       O    -4.63644  -10.33382   14.93559
      H1    -3.80145  -10.69156   14.62745
       H    -1.12225   -7.72116   16.55647
       O    -1.73186   -8.52337   16.59694
      H1    -2.45150   -8.31184   15.99129
       H    -0.04443  -11.28179   16.16697
       O    -0.33913  -10.55257   15.58341
      H1    -0.98640  -10.10730   16.13908
       H    -6.83521   -7.62421   18.69215
       O    -6.45650   -8.50757   18.42350
      H1    -6.87291   -8.78740   17.61873
       H    -0.05799   -2.15770   10.93421
       O     0.59649   -2.51854   11.57286
      H1     0.12590   -2.89438   12.28787
       H    -1.97087   -4.24864   14.67632
       O    -2.27236   -4.91323   15.26400
      H1    -3.20260   -4.93648   15.32933
       H     4.57440   -9.83458   14.26946
       O     4.99222   -9.16981   13.66759
      H1     4.32264   -8.96601   12.97865
       H     0.04540   -9.59381   11.95548
       O     0.69860   -9.63466   11.25326
      H1     1.36273   -8.95474   11.58218
       H    -5.62753  -11.45174   11.74189
       O    -5.81900  -10.70422   12.31965
      H1    -5.27586  -10.69266   13.10872
       H    -3.66710   -2.33276   19.48950
       O    -4.11817   -3.10286   19.86023
      H1    -3.66776   -3.83067   19.47754
       H     3.30548   -9.65998   16.33580
       O     3.90246  -10.31551   16.01050
      H1     4.69003  -10.27106   16.63841
       H     1.91216   -8.08814   19.42901
       O     1.33014   -8.64669   18.90896
      H1     1.49657   -8.25404   18.00387
       H    -2.86345   -8.65175   18.01149
       O    -3.55088   -8.89517   18.62477
      H1    -4.37386   -8.55940   18.19862
       H     2.35444  -11.67242   19.81790
       O     2.98667  -11.39769   19.11291
      H1     3.00030  -10.47378   19.12948
       H    -6.78731  -10.02370   15.18344
       O    -7.22246   -9.35722   15.76034
      H1    -8.04958   -9.15842   15.30712
       H     4.78360   -6.25267   13.38823
       O     4.99176   -6.60861   14.27022
      H1     4.93431   -7.60157   14.21511
       H     3.11995   -6.89075   16.66831
       O     3.63793   -6.19884   17.14368
      H1     4.52310   -6.55398   17.32140
       H     3.92405   -8.34456   11.07450
       O     3.29159   -8.74863   11.63581
      H1     3.24874   -9.70257   11.42386
       H    -5.48849   -9.14829   11.65565
       O    -5.15925   -8.29706   11.32278
      H1    -5.39191   -7.62799   11.94741
       H     2.45564   -3.29686   14.94377
       O     1.72656   -3.77782   15.31939
      H1     1.90313   -4.66253   14.94908
       H     3.37419  -11.89925   14.89447
       O     3.14000  -12.68156   14.37628
      H1     2.85818  -12.31563   13.52634
       H    -1.84076   -5.73654   18.78651
       O    -2.35727   -4.97751   18.36312
      H1    -1.91508   -4.73105   17.52776
       H    -0.70870   -5.45009   16.02319
       O    -0.20217   -6.09779   16.55592
      H1     0.66562   -5.95677   16.19639
       H    -6.12354   -2.95817   15.92944
       O    -5.96282   -3.35101   16.81250
      H1    -5.24537   -2.76076   17.13525
       H    -5.37825  -12.17075   17.76544
       O    -5.99094  -11.96435   17.03543
      H1    -5.97621  -12.80339   16.50852
       H    -4.73858   -6.72815   16.46913
       O    -4.39513   -7.37935   15.72882
      H1    -5.00427   -8.11249   15.79278
       H    -4.08624   -5.47145   17.78403
       O    -5.00670   -5.56668   17.46004
      H1    -5.39671   -4.68346   17.27363
       H    -5.37535   -5.60451   13.29491
       O    -4.45953   -5.92232   13.30689
      H1    -4.39330   -6.52016   14.06397
       H     2.37118   -5.23992   17.80108
       O     1.67973   -4.80978   18.36083
      H1     0.86515   -5.33818   18.25435
       H     1.10835   -9.23020   16.12888
       O     1.73211   -8.56885   16.28345
      H1     1.86596   -8.16188   15.40603
       H     1.22527  -13.35079   16.71658
       O     0.85974  -12.82154   17.48310
      H1     1.62447  -12.25983   17.73332

