12
frame 0 | Written by MDAnalysis XYZWriter (release 2.4.3)
       H    14.62940   -1.35833   -2.69186
       O    15.02171   -1.47009   -1.77301
      H1    15.61838   -0.72197   -1.61948
       H    18.46777   -4.28343   -3.29105
       O    19.37473   -4.41918   -3.56617
      H1    19.76576   -3.53698   -3.54403
       H    19.70378    1.87637   -0.33644
       O    19.10979    1.69343   -1.06309
      H1    19.47865    2.06265   -1.85862
       H    19.56683   -0.65770   -2.79622
       O    18.88642   -0.83454   -2.13642
      H1    18.89516   -0.03756   -1.68103

