12
frame 1 | Written by MDAnalysis XYZWriter (release 2.4.3)
       H    19.54516  -17.72001    1.69686
       O    19.12171  -18.49745    2.02025
      H1    18.26607  -18.57214    1.48713
       H    13.45303  -19.14784    1.13901
       O    13.88896  -18.31870    1.02852
      H1    14.89614  -18.43440    1.03948
       H    16.71266  -17.30982    1.21444
       O    16.57682  -18.27327    1.15898
      H1    16.75126  -18.50046    0.24718
       H    17.87334  -17.29184   -2.29393
       O    18.54975  -17.41758   -1.61193
      H1    19.03792  -18.23966   -1.84920

