12
frame 1 | Written by MDAnalysis XYZWriter (release 2.4.3)
       H    18.25373    4.20131  -17.38359
       O    18.16624    3.59832  -18.07994
      H1    18.76947    2.88859  -17.82342
       H    16.88884    8.06785  -16.37397
       O    17.70580    8.17004  -16.83326
      H1    18.04644    7.28460  -16.81735
       H    15.96761    5.69830  -15.06117
       O    16.63897    5.10244  -14.61102
      H1    16.10546    4.27642  -14.76037
       H    18.24313    5.62908  -15.61449
       O    18.56308    5.68350  -16.55079
      H1    19.53486    5.95306  -16.48261

