12
frame 1 | Written by MDAnalysis XYZWriter (release 2.4.3)
       H    15.11202   14.63878  -15.57576
       O    15.28546   14.62599  -14.60923
      H1    14.93804   13.73238  -14.36883
       H    16.79754   10.97026  -17.82512
       O    15.82917   11.14577  -17.84511
      H1    15.70918   12.12066  -17.76973
       H    15.80331   16.80139  -18.44511
       O    16.19958   16.04923  -18.91689
      H1    15.83970   15.26931  -18.57641
       H    14.50281   13.87435  -18.03456
       O    15.09988   13.71846  -17.29323
      H1    16.01431   13.84394  -17.53754

