12
frame 1 | Written by MDAnalysis XYZWriter (release 2.4.3)
       H   -10.80179   17.50142  -13.22702
       O   -10.43358   17.06164  -12.47501
      H1    -9.50489   17.28374  -12.47609
       H   -12.33358   18.03481  -15.55583
       O   -12.26853   18.37639  -14.66861
      H1   -13.18882   18.53872  -14.41186
       H   -10.73924   18.96615  -14.56638
       O    -9.78407   19.17175  -14.62591
      H1    -9.67924   20.05102  -14.21753
       H   -10.07874   19.33839  -16.28998
       O   -10.23252   19.31689  -17.25908
      H1   -10.83204   18.53710  -17.39889

