12
frame 0 | Written by MDAnalysis XYZWriter (release 2.4.3)
       H    15.48560    3.84774   -2.97947
       O    16.26935    3.58093   -3.40666
      H1    16.31152    4.13422   -4.19167
       H    15.81524    6.01215   -5.68596
       O    16.18257    5.85118   -4.79723
      H1    17.05764    6.21903   -4.87275
       H    15.99613    1.30719   -0.55395
       O    15.61698    1.48917   -1.39956
      H1    16.31822    1.88451   -1.97348
       H    15.50937    5.10935   -1.67459
       O    14.83896    4.93114   -0.99368
      H1    15.17927    4.31758   -0.28804

