12
frame 1 | Written by MDAnalysis XYZWriter (release 2.4.3)
       H   -11.17708   11.24616  -14.31750
       O   -12.02161   11.56996  -14.66063
      H1   -12.38280   12.11080  -13.93580
       H   -10.38581   10.32048  -12.51132
       O   -10.99013    9.72573  -12.05352
      H1   -11.61095   10.31896  -11.71310
       H   -11.77401   11.22043  -16.42971
       O   -11.44155   10.69738  -17.17151
      H1   -11.26396    9.80906  -16.84459
       H    -8.82748   11.47968  -14.42638
       O    -9.20636   10.96671  -13.67216
      H1    -8.62433   11.06573  -12.96705

