12
frame 1 | Written by MDAnalysis XYZWriter (release 2.4.3)
       H   -17.92353  -11.81824  -11.13272
       O   -17.02416  -11.58981  -11.39609
      H1   -16.92983  -10.65247  -11.12860
       H   -12.86007  -10.46520   -8.06726
       O   -13.33947  -10.11366   -7.30588
      H1   -14.25000  -10.24493   -7.50637
       H   -15.62848  -11.71640   -8.65725
       O   -15.84788  -10.88061   -8.26639
      H1   -16.71699  -11.00552   -7.87795
       H   -14.70360  -13.46288  -10.07225
       O   -15.52374  -13.12428   -9.68818
      H1   -15.99615  -12.67411  -10.36113

