12
frame 0 | Written by MDAnalysis XYZWriter (release 2.4.3)
       H     8.58106   -3.23862   16.69623
       O     8.66635   -2.79499   17.55066
      H1     8.80089   -3.58616   18.11655
       H     7.00227   -1.33912   16.73618
       O     6.08211   -1.09545   16.96032
      H1     5.59900   -1.51538   16.27288
       H     9.05993    0.84084   16.16094
       O     8.97472    1.41833   16.94631
      H1     9.06295    0.87142   17.73707
       H     5.19873   -2.71804   19.42516
       O     5.74503   -3.25093   18.88020
      H1     5.99547   -2.60347   18.20220

