12
frame 1 | Written by MDAnalysis XYZWriter (release 2.4.3)
       H     5.56383    3.50708   10.56286
       O     4.69198    3.36585   10.99112
      H1     4.69938    2.50897   11.50292
       H     2.74922   -1.03444   10.25275
       O     3.23218   -0.83549    9.41714
      H1     4.08840   -0.80415    9.84755
       H     6.69754    2.68631   13.34862
       O     6.99112    2.26296   12.56417
      H1     6.24508    1.64514   12.24939
       H     5.87159   -0.67425   11.46164
       O     5.24114    0.08566   11.39158
      H1     4.68478   -0.09730   12.21318

