12
frame 1 | Written by MDAnalysis XYZWriter (release 2.4.3)
       H     4.01536    7.18957   -6.03911
       O     3.28869    7.76899   -6.26685
      H1     2.69262    7.85344   -5.48447
       H     5.27996    6.61413   -7.83777
       O     5.83845    7.41755   -7.80780
      H1     5.20834    8.20134   -7.73953
       H     3.68347    7.76020   -9.68939
       O     2.92580    7.60581   -9.11659
      H1     3.30882    7.38486   -8.26104
       H     4.15061    8.98760   -5.45922
       O     4.31901    9.58257   -4.69246
      H1     3.66856   10.32949   -4.86890

