12
frame 1 | Written by MDAnalysis XYZWriter (release 2.4.3)
       H   -18.81385    4.68618   15.20259
       O   -18.05606    4.79784   14.59653
      H1   -17.46597    4.03318   14.88852
       H   -15.45859    2.72492   15.68415
       O   -14.91054    3.48237   15.50130
      H1   -14.26969    3.14700   14.77429
       H   -18.66714    3.00597   18.83521
       O   -18.20968    2.24056   18.54169
      H1   -17.39850    2.29601   19.05179
       H   -17.78460    1.94299   16.81544
       O   -17.51891    1.88474   15.88469
      H1   -16.96331    1.15184   15.75758

