12
frame 1 | Written by MDAnalysis XYZWriter (release 2.4.3)
       H   -10.56908    5.93250   13.73452
       O   -11.05736    6.07382   14.53677
      H1   -11.19534    7.02730   14.64132
       H   -12.99894    6.58847   16.95159
       O   -13.02756    7.40915   17.53156
      H1   -12.10999    7.45660   17.77394
       H    -8.70414    9.07618   15.62335
       O    -8.57649    8.18414   15.96686
      H1    -9.38502    8.07773   16.48974
       H   -10.51634    5.52821   17.68691
       O   -10.21499    6.30780   17.24127
      H1   -10.37035    6.06209   16.30951

