12
frame 1 | Written by MDAnalysis XYZWriter (release 2.4.3)
       H    -6.01060  -18.68811   13.63555
       O    -5.38589  -19.45840   13.54576
      H1    -4.46413  -19.25440   13.53171
       H    -1.94658  -16.13676   13.76794
       O    -2.12986  -16.70173   14.52507
      H1    -2.88597  -17.19488   14.16459
       H    -1.55183  -18.94094   11.75701
       O    -0.73988  -18.80666   11.28417
      H1    -0.93992  -18.81300   10.37512
       H    -2.16942  -18.94363   14.09199
       O    -2.58158  -19.26922   13.31097
      H1    -2.33848  -20.21108   13.39373

