12
frame 2 | Written by MDAnalysis XYZWriter (release 2.4.3)
       H   -16.18909   -1.38973   -0.00147
       O   -16.42632   -0.90328    0.81959
      H1   -15.73952   -1.21309    1.46723
       H   -14.27326    1.77834    1.52800
       O   -14.94460    2.00215    0.87150
      H1   -15.11555    1.08722    0.57493
       H   -18.07418    3.18915    1.83727
       O   -17.45780    2.50875    2.16580
      H1   -16.93161    2.13801    1.47482
       H   -14.63059    1.30521   -3.47270
       O   -15.21661    1.57639   -2.75302
      H1   -14.75002    1.32267   -1.97154

