12
frame 1 | Written by MDAnalysis XYZWriter (release 2.4.3)
       H   -17.92987    8.00925  -16.76497
       O   -17.93932    7.07595  -16.92228
      H1   -17.77382    6.84278  -17.87260
       H   -13.74886    7.59664  -17.32491
       O   -12.98589    7.99754  -17.72501
      H1   -13.22351    8.95236  -17.72902
       H   -16.79978    4.99855  -14.05916
       O   -15.94829    5.42647  -13.87048
      H1   -16.00555    6.26314  -14.35494
       H   -15.85195    6.29266  -16.80993
       O   -14.96276    6.65090  -16.72437
      H1   -14.93054    7.33864  -16.07667

