12
frame 1 | Written by MDAnalysis XYZWriter (release 2.4.3)
       H    13.42956   11.10468    8.26544
       O    12.54579   10.81777    8.60760
      H1    12.27748   11.59140    9.16627
       H    15.05728    9.47303    8.89911
       O    15.11556    8.91959    9.67534
      H1    14.26227    8.41312    9.52843
       H    17.87296   10.78184    8.64031
       O    17.90076   11.53513    8.04488
      H1    18.13725   11.18262    7.20042
       H    16.16863   11.03781    7.84220
       O    15.28484   10.81236    7.68849
      H1    15.20930   10.77541    6.69092

