12
frame 2 | Written by MDAnalysis XYZWriter (release 2.4.3)
       H    19.29279   -1.28022   18.73758
       O    19.35308   -2.20902   19.03076
      H1    19.59296   -2.66883   18.24137
       H    19.77307   -4.37028   15.99675
       O    19.78885   -3.56608   16.50174
      H1    19.06539   -3.06975   16.08811
       H    17.69320   -6.67152   15.69116
       O    17.33930   -5.82199   16.01409
      H1    17.91739   -5.53649   16.71100
       H    18.44568   -0.75821   15.21574
       O    18.34973   -1.66300   15.05307
      H1    17.47000   -1.75463   14.58910

