12
frame 2 | Written by MDAnalysis XYZWriter (release 2.4.3)
       H    16.57594    0.32980    5.08124
       O    16.93237   -0.35756    4.44781
      H1    16.36395   -0.34430    3.71065
       H    13.51798    0.32128    7.25617
       O    13.76266   -0.61657    7.55405
      H1    13.98611   -1.13465    6.74335
       H    18.24801   -0.62042    7.92270
       O    17.75746    0.11603    8.23961
      H1    16.91957    0.14412    7.79601
       H    16.08330    2.08866    6.60342
       O    15.77804    1.21792    6.41440
      H1    14.96777    1.43896    5.93263

