12
frame 2 | Written by MDAnalysis XYZWriter (release 2.4.3)
       H   -12.15873   -6.21373  -10.49207
       O   -12.68516   -5.46357  -10.17176
      H1   -12.05503   -4.73963   -9.95982
       H   -13.53578   -0.64870   -8.01723
       O   -12.55579   -0.59988   -7.96468
      H1   -12.29634   -0.29795   -8.84864
       H   -10.70741   -2.84144   -9.02679
       O   -11.68303   -3.07717   -9.03609
      H1   -12.06625   -2.26862   -8.61493
       H   -12.49965   -3.80162   -6.75669
       O   -12.04106   -4.50957   -6.25951
      H1   -11.12173   -4.54181   -6.67607

