12
frame 2 | Written by MDAnalysis XYZWriter (release 2.4.3)
       H     6.59709  -18.20144   18.10897
       O     7.43198  -18.51853   17.70136
      H1     7.72094  -17.69707   17.28123
       H     5.52859  -14.96727   19.42156
       O     6.03975  -15.61734   18.85830
      H1     6.13976  -15.13386   18.00950
       H     4.39748  -17.00414   18.66091
       O     4.40297  -17.93583   18.27906
      H1     4.54502  -18.48189   19.06873
       H     2.79912  -18.43737   17.52124
       O     2.09505  -18.82157   16.95822
      H1     2.44889  -19.63622   16.54761

