12
frame 2 | Written by MDAnalysis XYZWriter (release 2.4.3)
       H    -6.12737   14.50118   17.18935
       O    -5.27648   14.59503   17.59590
      H1    -5.03721   15.50867   17.28440
       H    -1.33263   17.05438   19.10007
       O    -2.32051   17.16418   19.24177
      H1    -2.48532   16.49406   19.91567
       H    -5.07494   18.00863   16.92925
       O    -4.50078   17.22556   17.00330
      H1    -3.80744   17.49827   17.59340
       H    -2.88479   16.51247   16.32120
       O    -2.00087   16.64585   16.01452
      H1    -2.04552   17.59298   15.79220

