12
frame 2 | Written by MDAnalysis XYZWriter (release 2.4.3)
       H   -11.17921  -14.48897    9.60284
       O   -10.92416  -15.10194   10.29861
      H1   -11.14291  -15.97534    9.98921
       H   -11.76223  -17.62786   11.97715
       O   -12.11066  -17.80690   12.87563
      H1   -11.76669  -17.01779   13.34095
       H   -14.44718  -19.00554    7.00651
       O   -14.16281  -18.47107    7.82062
      H1   -14.66154  -18.83937    8.59754
       H   -11.44544  -18.58526    9.51755
       O   -12.09293  -17.86039    9.66050
      H1   -12.71393  -17.93559    8.91026

