12
frame 2 | Written by MDAnalysis XYZWriter (release 2.4.3)
       H    15.21083    7.26052    6.96639
       O    15.84740    7.01297    6.24157
      H1    15.57489    7.52170    5.49389
       H    13.94000    7.53772    2.99173
       O    14.22209    7.68780    3.93493
      H1    13.36475    7.43552    4.35256
       H    14.48592    9.21583    4.58752
       O    14.81937    9.94270    5.07324
      H1    14.89621   10.69647    4.49959
       H    13.25869    9.68656    3.11552
       O    12.64103   10.07064    2.45388
      H1    11.74419   10.03426    2.80649

