12
frame 2 | Written by MDAnalysis XYZWriter (release 2.4.3)
       H   -15.64644  -16.24272   -0.70355
       O   -15.34973  -15.80126    0.07317
      H1   -15.76369  -16.03787    0.85841
       H   -16.40607  -12.26352    2.23998
       O   -15.65613  -12.50901    1.59629
      H1   -14.85321  -12.15237    2.02546
       H   -15.02705  -12.52420   -1.47665
       O   -14.13430  -12.25250   -1.39517
      H1   -13.61854  -13.09002   -1.51894
       H   -12.69298  -14.95321    0.08220
       O   -12.73374  -14.20226    0.70034
      H1   -13.69483  -13.93113    0.70802

