12
frame 2 | Written by MDAnalysis XYZWriter (release 2.4.3)
       H     9.49510  -18.99765   -3.28147
       O     8.79336  -19.34995   -3.86401
      H1     8.45350  -20.02382   -3.29016
       H     7.62596  -17.89662   -4.05808
       O     7.37160  -16.96947   -4.03749
      H1     8.10719  -16.44946   -4.36723
       H     6.38508  -15.87491   -1.30692
       O     5.84811  -16.76372   -1.48658
      H1     6.22017  -17.05205   -2.30509
       H    11.26723  -18.77505   -2.25514
       O    10.67847  -18.02738   -2.28480
      H1    10.50684  -17.74899   -3.21984

