12
frame 3 | Written by MDAnalysis XYZWriter (release 2.4.3)
       H    12.28052   19.63093   13.56505
       O    12.47566   18.89097   12.97786
      H1    13.18483   19.16570   12.40689
       H    10.10788   17.80760   14.98413
       O     9.67013   18.30721   15.66311
      H1     8.78477   18.08523   15.46951
       H    14.10043   16.72201   14.09849
       O    14.28150   16.69288   15.02268
      H1    13.72745   17.33986   15.43364
       H    10.11751   16.48311   12.99981
       O    10.70109   16.57510   13.74097
      H1    11.48761   17.10242   13.42413

