12
frame 4 | Written by MDAnalysis XYZWriter (release 2.4.3)
       H     1.86746   10.35686   -1.10936
       O     1.94423    9.58727   -1.69657
      H1     2.32736    8.88239   -1.11751
       H     0.63439    6.19963    1.14754
       O     1.55165    6.26607    1.51648
      H1     1.65481    7.22281    1.65677
       H     2.61259    6.86186    0.05037
       O     3.16879    7.08524   -0.64800
      H1     2.71944    7.10083   -1.50346
       H     5.31159    8.04973    0.12069
       O     5.99195    8.45735    0.64745
      H1     6.06970    9.38748    0.43268

