12
frame 4 | Written by MDAnalysis XYZWriter (release 2.4.3)
       H    12.59688   -4.24865   13.84453
       O    11.88635   -3.66237   13.48576
      H1    12.44284   -3.21659   12.84398
       H    12.53618   -1.69615   14.44735
       O    12.95447   -1.42772   15.30537
      H1    13.25332   -0.52619   15.06250
       H    14.66526   -4.58261   15.30787
       O    14.46699   -4.27770   14.42533
      H1    15.02601   -3.51416   14.23298
       H     9.99499   -3.52473   14.66041
       O     9.38225   -3.07409   15.25598
      H1     9.76637   -2.19126   15.43131

