12
frame 3 | Written by MDAnalysis XYZWriter (release 2.4.3)
       H     6.59567   10.57569    3.44639
       O     7.19802   10.44442    2.63901
      H1     6.71746    9.77347    2.06343
       H     3.15401    6.77447   -0.13515
       O     3.64522    7.57653   -0.49943
      H1     3.70480    7.35160   -1.41332
       H     5.37087    8.39375    0.11787
       O     6.30811    8.70517    0.32214
      H1     6.52266    9.32856   -0.36252
       H     4.35271    7.92306    2.62223
       O     3.75977    8.61485    2.97646
      H1     3.59549    9.15649    2.22095

