12
frame 3 | Written by MDAnalysis XYZWriter (release 2.4.3)
       H    11.98768   10.53509  -15.76994
       O    11.49501   11.38871  -15.85802
      H1    12.20035   11.98255  -15.47533
       H    13.17978    8.48004  -15.34886
       O    13.28550    9.26442  -15.88790
      H1    13.16382    8.99936  -16.78422
       H    14.80212   10.16498  -15.65076
       O    15.51667   10.78957  -15.45841
      H1    16.04590   10.76276  -16.30031
       H    11.85745    9.12479  -18.60825
       O    12.67207    8.54788  -18.54153
      H1    12.37094    7.65673  -18.32874

