12
frame 3 | Written by MDAnalysis XYZWriter (release 2.4.3)
       H    14.79281   16.98754    7.29474
       O    15.46627   17.06364    7.96487
      H1    15.92476   16.22631    8.08333
       H    12.29815   16.92528    2.58963
       O    12.05632   16.02676    2.82270
      H1    12.02425   15.98579    3.81269
       H    12.93778   17.49860    5.81426
       O    13.87491   17.47936    5.47974
      H1    13.99994   18.48240    5.54271
       H    10.75930   18.24042    6.50545
       O    10.89742   18.11549    5.53556
      H1    10.35740   17.30351    5.28806

