12
frame 0 | Written by MDAnalysis XYZWriter (release 2.4.3)
       H    16.80875    6.51052  -14.82363
       O    17.02515    5.61312  -14.57789
      H1    16.42215    4.94115  -14.87679
       H    19.38360   11.07934  -12.41157
       O    18.49644   11.04649  -12.87660
      H1    17.95250   11.61701  -12.35322
       H    18.43339    8.70798  -15.43497
       O    18.87363    8.46417  -14.56309
      H1    18.60474    9.13442  -13.97042
       H    16.54801    9.18931  -12.53848
       O    15.89349    9.07191  -13.25944
      H1    15.89861    9.78728  -13.92311

