12
frame 3 | Written by MDAnalysis XYZWriter (release 2.4.3)
       H    -8.20021  -14.28837   16.02461
       O    -7.57863  -15.00378   15.81629
      H1    -7.52720  -15.03288   14.84502
       H    -8.40030  -12.31673   10.66814
       O    -7.89599  -12.70903   11.35691
      H1    -7.11670  -12.21042   11.51843
       H    -7.58128  -14.54296   12.38068
       O    -7.30785  -15.17382   13.00505
      H1    -7.59497  -15.99653   12.70234
       H    -4.43898  -14.67452   11.97910
       O    -4.60582  -14.91964   12.91221
      H1    -5.56925  -15.23951   12.81058

