12
frame 3 | Written by MDAnalysis XYZWriter (release 2.4.3)
       H   -17.53032   -2.14820  -12.21901
       O   -16.87214   -1.57394  -12.62697
      H1   -16.75252   -1.80771  -13.56541
       H   -16.08790    0.61588  -17.67938
       O   -15.46497   -0.00863  -17.21392
      H1   -14.88815    0.62767  -16.80214
       H   -16.26431   -0.94384  -16.17759
       O   -16.60469   -1.58323  -15.45851
      H1   -17.29289   -2.18587  -15.79302
       H   -14.95829   -2.49061  -15.01920
       O   -14.09644   -2.84833  -15.11461
      H1   -13.76147   -3.07362  -14.23346

