12
frame 3 | Written by MDAnalysis XYZWriter (release 2.4.3)
       H     3.33199  -17.03476  -16.71444
       O     4.27126  -17.34143  -16.82435
      H1     4.44074  -18.13965  -16.28401
       H     0.81041  -15.83791  -14.59627
       O     1.53021  -16.22334  -15.12349
      H1     1.50396  -17.18580  -14.93780
       H     1.42729  -15.95593  -16.89056
       O     1.66381  -16.16780  -17.79494
      H1     2.32999  -15.53616  -18.08846
       H    -0.15465  -19.43548  -17.46873
       O    -0.32390  -18.54091  -17.15031
      H1     0.57070  -18.12755  -17.20064

