12
frame 3 | Written by MDAnalysis XYZWriter (release 2.4.3)
       H    17.06817   -4.43570  -13.91953
       O    16.90431   -5.40278  -13.85852
      H1    15.99333   -5.43641  -13.48247
       H    19.36460   -7.79945  -13.19463
       O    19.62933   -6.84015  -13.22814
      H1    18.80842   -6.34364  -12.96599
       H    20.00074   -4.12856  -10.90979
       O    19.50137   -4.92066  -11.14218
      H1    18.61279   -4.62256  -11.28937
       H    18.65578   -6.75403   -8.97042
       O    18.82276   -7.14770   -9.87723
      H1    19.17984   -6.36168  -10.37967

