12
frame 3 | Written by MDAnalysis XYZWriter (release 2.4.3)
       H    14.79281   16.98754    7.29474
       O    15.46627   17.06364    7.96487
      H1    15.92476   16.22631    8.08333
       H    13.58541   14.65339    6.08989
       O    12.62558   14.70710    6.07116
      H1    12.48235   14.17169    6.83665
       H    17.08572   17.06628    5.01482
       O    17.04866   16.09309    4.68558
      H1    17.85684   15.69329    5.01109
       H    15.88118   15.12431    5.58216
       O    15.43075   14.56907    6.25957
      H1    15.80955   13.70783    6.16155

