12
frame 3 | Written by MDAnalysis XYZWriter (release 2.4.3)
       H    10.49032   16.67166    9.91702
       O    10.93666   16.19079    9.10885
      H1    11.88090   16.46011    9.31785
       H    11.15339   18.06158    8.24296
       O    11.65951   18.92592    8.01236
      H1    11.27792   19.60922    8.51213
       H    11.55611   14.68538    9.88664
       O    11.70672   13.93606   10.49474
      H1    10.93886   13.35599   10.45111
       H    13.82227   16.57455   10.94530
       O    13.43898   16.97947   10.09540
      H1    14.19391   17.02586    9.53129

