12
frame 3 | Written by MDAnalysis XYZWriter (release 2.4.3)
       H   -16.08790    0.61588  -17.67938
       O   -15.46497   -0.00863  -17.21392
      H1   -14.88815    0.62767  -16.80214
       H   -15.42055    0.37330  -19.46612
       O   -14.46944    0.43357  -19.65671
      H1   -14.18497    0.26327  -18.75068
       H   -17.32829    1.49958  -19.68819
       O   -17.14470    0.79099  -19.01473
      H1   -17.29800   -0.03296  -19.54469
       H   -12.42704   -1.03529  -18.24284
       O   -12.48523   -1.06069  -17.27922
      H1   -13.16097   -1.72141  -17.13826

