12
frame 3 | Written by MDAnalysis XYZWriter (release 2.4.3)
       H   -11.56766  -12.74079  -16.97986
       O   -12.17653  -13.13070  -16.26024
      H1   -11.48015  -13.71148  -15.86824
       H   -10.02486  -15.36583  -15.82424
       O   -10.21097  -14.61473  -15.30929
      H1    -9.50343  -13.95461  -15.26649
       H   -12.66577  -16.24421  -13.24980
       O   -11.74670  -15.85329  -13.15921
      H1   -11.36935  -15.40856  -13.89942
       H    -8.87960  -17.78855  -17.15383
       O    -8.71912  -16.79902  -17.17973
      H1    -7.76426  -16.72198  -17.40423

