12
frame 3 | Written by MDAnalysis XYZWriter (release 2.4.3)
       H   -10.66404   -2.88920   15.99691
       O   -10.46858   -3.18630   16.88008
      H1   -10.87955   -4.05192   16.78354
       H   -10.65689   -0.68019   19.23190
       O   -11.32254   -0.03549   19.48897
      H1   -12.05936   -0.25193   18.88913
       H   -12.93679   -1.30216   16.52840
       O   -12.74466   -1.52858   17.46332
      H1   -12.02641   -2.23352   17.44743
       H   -14.44822   -4.41000   17.03144
       O   -14.54783   -3.65747   17.63546
      H1   -13.88783   -2.98549   17.40047

