12
frame 3 | Written by MDAnalysis XYZWriter (release 2.4.3)
       H   -13.29914   17.29926   -4.33146
       O   -13.09890   17.94338   -3.62632
      H1   -12.43856   17.50702   -3.05719
       H   -15.07220   18.43349   -1.31211
       O   -15.40822   17.57305   -1.59411
      H1   -15.02881   17.33477   -2.42844
       H   -10.41179   18.78862   -5.15367
       O   -10.16831   17.93344   -4.81261
      H1    -9.29090   17.81927   -5.20647
       H   -10.56830   17.67899   -3.15639
       O   -10.73773   17.59546   -2.18542
      H1   -10.48852   18.50956   -1.89714

