12
frame 4 | Written by MDAnalysis XYZWriter (release 2.4.3)
       H    16.70562  -10.78595  -16.14312
       O    17.63022  -10.90614  -16.28969
      H1    18.00734  -10.08534  -15.86415
       H    17.89393  -12.51906  -15.52696
       O    17.75669  -13.35870  -15.05302
      H1    18.33195  -13.97477  -15.52817
       H    16.06346  -12.41630  -19.12746
       O    16.35745  -13.32850  -19.24081
      H1    16.17665  -13.77348  -18.39228
       H    18.16263  -10.87452  -17.94203
       O    18.53967  -10.56332  -18.76843
      H1    19.22239  -11.22962  -19.04973

