12
frame 4 | Written by MDAnalysis XYZWriter (release 2.4.3)
       H     3.30076   15.01503    6.76952
       O     3.73739   15.37467    7.60018
      H1     3.73476   16.30835    7.31280
       H     3.58272   11.45290    7.39570
       O     2.72390   11.77570    7.20802
      H1     2.19343   11.66129    8.01321
       H     1.97400   13.75447    4.74996
       O     2.14796   14.11312    5.61624
      H1     2.36917   13.36256    6.16325
       H    -0.72799   15.19229    5.94408
       O     0.00251   15.60899    6.40946
      H1     0.86515   15.12833    6.16737

