12
frame 4 | Written by MDAnalysis XYZWriter (release 2.4.3)
       H   -16.92615   -4.98774   -6.58722
       O   -17.12184   -5.24768   -5.68237
      H1   -17.34082   -4.36073   -5.28729
       H   -19.72604   -4.05166   -9.96321
       O   -18.76352   -4.20245  -10.03701
      H1   -18.35130   -4.37304   -9.15020
       H   -16.48905   -5.61955   -8.94893
       O   -16.77374   -4.90738   -8.33221
      H1   -16.23100   -4.11203   -8.61228
       H   -17.64895   -5.82362  -10.41150
       O   -17.11648   -6.57689  -10.28328
      H1   -16.23303   -6.32253  -10.73704

