12
frame 5 | Written by MDAnalysis XYZWriter (release 2.4.3)
       H   -16.43625   -7.83103  -17.96649
       O   -17.18131   -7.30388  -17.70626
      H1   -17.95584   -7.67487  -18.09806
       H   -19.64020   -7.71396  -19.84669
       O   -19.64823   -7.88471  -18.87296
      H1   -19.87021   -8.83380  -18.74112
       H   -19.00676   -4.98520  -18.63646
       O   -18.05874   -5.01042  -18.76748
      H1   -17.79109   -5.76962  -18.25628
       H   -18.97742   -8.80436  -15.30976
       O   -18.02270   -8.79872  -15.56075
      H1   -17.80267   -8.27350  -16.31484

