12
frame 4 | Written by MDAnalysis XYZWriter (release 2.4.3)
       H    -6.35373  -16.80590    5.68082
       O    -5.49441  -16.46873    5.24038
      H1    -5.91310  -15.63875    4.80963
       H    -4.93466  -11.61969    1.11264
       O    -4.45876  -11.79273    1.96698
      H1    -4.91889  -12.48907    2.44602
       H    -3.88208  -14.15330    5.77644
       O    -4.20831  -13.28518    5.44333
      H1    -4.77471  -13.37323    4.64790
       H    -6.54953  -13.03245    3.84573
       O    -6.08327  -13.66688    3.30482
      H1    -6.58555  -14.47476    3.05654

