12
frame 4 | Written by MDAnalysis XYZWriter (release 2.4.3)
       H    -0.54803    7.79102   -3.79173
       O    -0.18401    7.46801   -4.61595
      H1    -0.37010    8.07722   -5.34451
       H    -0.69113    5.80897   -2.58022
       O    -1.05352    4.94064   -2.35640
      H1    -1.62610    4.87598   -1.53362
       H     2.48208    6.05916   -3.92430
       O     1.88636    6.51007   -3.29219
      H1     1.30384    7.06282   -3.83763
       H     0.41450    8.70846   -1.98756
       O    -0.46271    8.33538   -2.13763
      H1    -1.20746    8.95446   -2.13307

