12
frame 4 | Written by MDAnalysis XYZWriter (release 2.4.3)
       H   -10.11915  -11.56064  -18.50591
       O   -10.79287  -11.77341  -19.11929
      H1   -10.47446  -11.25541  -19.87726
       H    -7.49174  -12.59857  -14.13420
       O    -8.36238  -12.66613  -14.57034
      H1    -8.23521  -12.57190  -15.53285
       H    -6.43157  -14.59167  -18.90901
       O    -6.32514  -13.71339  -19.19929
      H1    -5.42327  -13.38583  -19.37659
       H    -7.35108  -12.85278  -18.00776
       O    -7.89762  -12.35348  -17.32432
      H1    -7.17892  -11.87017  -16.83802

