12
frame 4 | Written by MDAnalysis XYZWriter (release 2.4.3)
       H    14.47991  -12.62518   17.38703
       O    14.39039  -11.66564   17.18927
      H1    14.63135  -11.08357   17.91174
       H    12.07400  -15.76164   18.50368
       O    12.63178  -15.93979   17.77726
      H1    12.43376  -15.18874   17.21277
       H    15.36700  -14.08505   18.80604
       O    14.84909  -14.14773   17.95806
      H1    14.25935  -14.93973   18.04160
       H    15.17436  -17.13457   17.02584
       O    15.84508  -16.87016   17.62310
      H1    16.11922  -15.91001   17.39689

