12
frame 5 | Written by MDAnalysis XYZWriter (release 2.4.3)
       H     2.61035   11.61133   -6.41459
       O     3.00253   11.77570   -7.29645
      H1     3.49633   12.58973   -7.19176
       H     0.12201   11.59058   -4.73446
       O     0.84395   11.22674   -5.30046
      H1     0.42430   10.79961   -6.07412
       H     1.12160   14.81733   -5.34557
       O     1.38479   13.97871   -5.66072
      H1     0.79800   13.29608   -5.32577
       H     0.59940   12.17819   -2.48488
       O    -0.18399   12.15899   -3.02901
      H1    -0.76419   11.60539   -2.49289

