12
frame 4 | Written by MDAnalysis XYZWriter (release 2.4.3)
       H     2.96320    7.21500    6.05092
       O     2.61058    6.96933    5.20629
      H1     2.94845    6.09447    5.08627
       H     6.55387    6.21424    7.55273
       O     5.77374    5.61277    7.46166
      H1     5.06358    6.24004    7.63453
       H     2.00769    7.44755    8.07991
       O     1.04271    7.44235    8.01720
      H1     0.76604    8.32509    7.72347
       H     3.70910    6.21091    8.67226
       O     3.75320    7.13889    8.37334
      H1     3.76106    7.68039    9.16352

