12
frame 4 | Written by MDAnalysis XYZWriter (release 2.4.3)
       H    -9.68318  -10.11791  -13.07174
       O   -10.07607  -10.95350  -13.20599
      H1    -9.46589  -11.54261  -13.73804
       H    -7.49174  -12.59857  -14.13420
       O    -8.36238  -12.66613  -14.57034
      H1    -8.23521  -12.57190  -15.53285
       H   -10.87153  -12.13141  -12.00500
       O   -11.34401  -12.32088  -11.20691
      H1   -11.18478  -13.31456  -11.01847
       H   -11.73179   -9.60410  -16.24839
       O   -11.67756   -9.29769  -15.30437
      H1   -11.35120  -10.06694  -14.77414

