12
frame 4 | Written by MDAnalysis XYZWriter (release 2.4.3)
       H   -17.42887    0.45556  -17.19108
       O   -17.20889    0.73265  -16.31055
      H1   -16.33073    1.10518  -16.37742
       H   -15.85594   -0.03264  -19.52859
       O   -14.99964    0.11923  -19.92232
      H1   -14.26900   -0.13833  -19.30080
       H   -15.46021   -3.59059  -18.68916
       O   -14.64669   -3.16904  -18.92281
      H1   -14.81984   -2.75998  -19.80636
       H   -17.53107    0.96980  -19.76021
       O   -17.64292    0.28374  -19.05757
      H1   -17.82968   -0.56687  -19.46753

