12
frame 4 | Written by MDAnalysis XYZWriter (release 2.4.3)
       H    -0.70122   -2.59293   -4.45533
       O    -1.01926   -1.76577   -4.09312
      H1    -0.34382   -1.35321   -3.51358
       H    -0.55161   -3.36265   -7.08592
       O    -0.24604   -2.60833   -7.51782
      H1     0.45196   -2.98611   -8.11341
       H     2.27165   -2.63894   -5.58854
       O     1.51590   -2.15502   -5.32609
      H1     0.86408   -2.23449   -6.03939
       H     2.80248    0.73774   -4.31440
       O     1.96179    0.38051   -4.69680
      H1     2.08252   -0.57712   -4.81393

