12
frame 5 | Written by MDAnalysis XYZWriter (release 2.4.3)
       H   -16.72230   -4.97515   12.85092
       O   -16.08769   -4.29462   13.07863
      H1   -16.35139   -4.06868   13.99145
       H   -19.04280   -2.26991   15.37954
       O   -18.42170   -3.01501   15.39641
      H1   -18.56088   -3.55236   16.23956
       H   -16.36303   -0.75132   12.77769
       O   -16.14808   -0.17346   13.55984
      H1   -16.00034   -0.82934   14.25557
       H   -15.46300   -2.73926   16.58976
       O   -15.70488   -2.43503   15.65374
      H1   -16.63489   -2.58543   15.61923

