12
frame 4 | Written by MDAnalysis XYZWriter (release 2.4.3)
       H     5.21223  -16.05260  -15.85183
       O     5.53829  -15.46371  -15.15639
      H1     6.30487  -15.85150  -14.70920
       H     3.46580  -17.20339  -16.70661
       O     4.21722  -17.83538  -16.73787
      H1     4.39384  -18.21872  -15.82801
       H     4.14111  -16.06344  -14.36801
       O     3.42790  -16.55857  -13.87241
      H1     2.55105  -16.13510  -14.10413
       H     6.43215  -19.71033  -18.65951
       O     5.62874  -19.23469  -18.89976
      H1     5.30744  -18.67896  -18.16549

