12
frame 4 | Written by MDAnalysis XYZWriter (release 2.4.3)
       H     2.25469    2.72604  -14.34204
       O     1.44957    3.17558  -14.04412
      H1     0.85183    2.42569  -13.85772
       H    -0.12486    0.36711  -14.27291
       O    -0.57919    1.15840  -14.02287
      H1    -1.08373    1.00711  -13.19589
       H    -3.38129    0.43666  -12.30181
       O    -2.54500    0.00830  -12.46210
      H1    -2.19550   -0.20534  -11.55779
       H    -1.49459   -0.01557  -16.74579
       O    -2.08294    0.50359  -16.16096
      H1    -1.58712    0.81323  -15.39747

