12
frame 5 | Written by MDAnalysis XYZWriter (release 2.4.3)
       H    -4.03509    3.83720   16.81017
       O    -3.32297    4.06801   17.44900
      H1    -2.87007    4.82667   16.95414
       H    -4.95522    1.66789   16.83511
       O    -4.19657    1.09246   16.75385
      H1    -3.65523    1.30891   17.53668
       H    -1.62077    5.54764   15.46456
       O    -2.04191    5.95600   16.22824
      H1    -1.31474    6.11478   16.88526
       H    -1.33029    3.16746   18.15922
       O    -0.88413    2.36383   18.37881
      H1    -0.19631    2.62175   19.05473

