12
frame 5 | Written by MDAnalysis XYZWriter (release 2.4.3)
       H    -0.46268    6.24993   19.53589
       O    -0.29869    6.21101   18.58699
      H1     0.49291    6.80884   18.49629
       H    -1.62077    5.54764   15.46456
       O    -2.04191    5.95600   16.22824
      H1    -1.31474    6.11478   16.88526
       H    -1.33029    3.16746   18.15922
       O    -0.88413    2.36383   18.37881
      H1    -0.19631    2.62175   19.05473
       H     1.31495    4.67025   17.42864
       O     1.84732    4.82182   16.63106
      H1     2.32469    4.01451   16.44567

