12
frame 6 | Written by MDAnalysis XYZWriter (release 2.4.3)
       H   -10.58234  -10.79474  -13.97459
       O   -11.10422  -11.25856  -14.58063
      H1   -10.55550  -11.96652  -14.97273
       H   -14.12637  -10.88751  -15.44974
       O   -14.63316  -11.65479  -15.73522
      H1   -15.50759  -11.46158  -16.08175
       H   -11.49306   -7.51473  -16.46283
       O   -11.60679   -6.63108  -16.14927
      H1   -10.89327   -6.07512  -16.54408
       H   -12.39093   -9.55920  -16.99262
       O   -12.42463   -9.45500  -16.00590
      H1   -11.94265  -10.29799  -15.69364

