12
frame 6 | Written by MDAnalysis XYZWriter (release 2.4.3)
       H    14.03012   12.22184   19.65170
       O    14.26155   12.36145   18.70421
      H1    15.17423   12.01472   18.71703
       H    17.46465   12.28039   18.25528
       O    16.83809   11.73293   17.72776
      H1    16.50994   12.08733   16.89330
       H    16.12610   12.02610   14.83413
       O    15.57304   12.34255   15.54547
      H1    15.28123   13.20495   15.26400
       H    17.41908   10.13447   18.21738
       O    17.74063    9.23977   18.50761
      H1    16.94567    8.79410   18.89650

