12
frame 5 | Written by MDAnalysis XYZWriter (release 2.4.3)
       H    12.03972    9.24038  -14.25990
       O    12.02364    9.98990  -14.84526
      H1    12.82136   10.54079  -14.65639
       H    13.65946    8.69443  -12.52926
       O    12.69500    8.74831  -12.46692
      H1    12.46645    8.05697  -11.82612
       H    10.65177   10.39393  -14.01577
       O     9.84698   10.72105  -13.50500
      H1     9.62495   10.05988  -12.85306
       H    10.41847   11.58845  -17.14277
       O    11.21079   11.04220  -17.30408
      H1    11.48004   10.51423  -16.50224

