12
frame 5 | Written by MDAnalysis XYZWriter (release 2.4.3)
       H   -17.32396    4.03076   -9.83478
       O   -17.38146    3.23516  -10.32731
      H1   -17.81285    2.69387   -9.66761
       H   -16.94787    6.32722  -12.78649
       O   -16.24900    6.18662  -12.13461
      H1   -15.47366    6.72274  -12.29327
       H   -14.90756    6.81871   -7.43924
       O   -15.71356    7.41094   -7.42184
      H1   -16.24723    6.90268   -8.08538
       H   -16.87070    6.27223  -10.30374
       O   -17.15804    6.12588   -9.37776
      H1   -18.08723    6.17311   -9.35251

