12
frame 5 | Written by MDAnalysis XYZWriter (release 2.4.3)
       H   -17.91109   17.90019   -6.36578
       O   -17.85756   18.83381   -6.14564
      H1   -18.75271   19.20713   -5.92409
       H   -18.40437   16.14899   -5.35576
       O   -17.87301   16.09139   -6.20847
      H1   -16.90660   16.03115   -5.97623
       H   -17.91043   17.31953   -8.77380
       O   -18.70310   16.74819   -8.64335
      H1   -18.47835   16.41831   -7.75507
       H   -15.12076   14.95263   -7.86575
       O   -15.81925   14.55272   -7.43082
      H1   -15.43120   13.86365   -6.86050

