12
frame 5 | Written by MDAnalysis XYZWriter (release 2.4.3)
       H    14.10316  -13.11137  -12.05434
       O    14.53188  -12.94476  -11.23978
      H1    15.47693  -12.93007  -11.41888
       H    14.06878  -14.22591   -7.78748
       O    13.35873  -14.47656   -8.54034
      H1    13.68271  -14.23158   -9.40200
       H    15.99774  -16.15497  -10.15060
       O    16.54000  -15.68332   -9.54588
      H1    16.14643  -14.88042   -9.24371
       H    12.76535  -16.08697   -9.73413
       O    12.36469  -16.24869  -10.60024
      H1    13.12876  -16.31547  -11.15551

