12
frame 5 | Written by MDAnalysis XYZWriter (release 2.4.3)
       H    18.80555   14.43329    1.04555
       O    19.24014   15.13234    0.50567
      H1    18.54867   15.83121    0.39137
       H    14.74064   19.24309   -1.36701
       O    14.77669   19.35740   -2.29832
      H1    14.95905   18.46242   -2.70087
       H    16.25891   16.60639   -0.63301
       O    17.09613   17.03410   -0.32958
      H1    17.19564   17.82979   -0.85312
       H    17.44985   18.11393   -3.48374
       O    18.39566   18.10815   -3.22680
      H1    18.83539   18.51107   -3.96726

