12
frame 0 | Written by MDAnalysis XYZWriter (release 2.4.3)
       H   -12.60179   -5.56523  -10.72816
       O   -13.07536   -4.83854  -10.30646
      H1   -12.40491   -4.39330   -9.67491
       H   -14.99600   -4.87220  -10.10746
       O   -15.91248   -5.08052  -10.07671
      H1   -16.19310   -4.64046   -9.25064
       H   -13.49931   -5.73436   -8.56561
       O   -13.53589   -6.52051   -7.95618
      H1   -12.71216   -6.36303   -7.41940
       H   -14.23998   -3.78331  -12.93459
       O   -14.13760   -3.18893  -12.18027
      H1   -13.54462   -3.68951  -11.59789

