12
frame 5 | Written by MDAnalysis XYZWriter (release 2.4.3)
       H   -14.90756    6.81871   -7.43924
       O   -15.71356    7.41094   -7.42184
      H1   -16.24723    6.90268   -8.08538
       H   -18.32975    7.36308   -5.75525
       O   -17.47775    7.19865   -5.28394
      H1   -16.82304    7.25004   -5.97332
       H   -16.87070    6.27223  -10.30374
       O   -17.15804    6.12588   -9.37776
      H1   -18.08723    6.17311   -9.35251
       H   -19.59124    8.75510   -7.46487
       O   -19.34511    7.83066   -7.29559
      H1   -19.60747    7.46977   -8.13952

