12
frame 5 | Written by MDAnalysis XYZWriter (release 2.4.3)
       H    16.88899   16.35818  -14.91469
       O    16.79010   16.87061  -15.76414
      H1    15.85742   16.68246  -15.91269
       H    14.89253   19.06683  -13.07984
       O    14.78910   19.15292  -14.10277
      H1    15.67296   19.54087  -14.35073
       H    12.87070   16.43002  -14.19324
       O    12.19716   16.50438  -13.46513
      H1    11.33432   16.50612  -13.86196
       H    13.93693   17.61606  -15.26069
       O    13.97636   16.61867  -15.28916
      H1    13.59609   16.26538  -16.06927

