12
frame 6 | Written by MDAnalysis XYZWriter (release 2.4.3)
       H     6.04039   11.71416   10.95599
       O     6.71933   11.00501   10.94733
      H1     7.45115   11.40320   11.37392
       H     8.75904   12.09510   13.10954
       O     8.93003   11.75924   12.17142
      H1     9.47396   10.98166   12.30789
       H     8.27213   11.28447    8.03255
       O     7.49305   10.71861    8.23512
      H1     7.27500   10.92777    9.17520
       H     6.48959    9.23398   13.82819
       O     6.51136    9.13777   12.87952
      H1     6.34547   10.00771   12.48650

