12
frame 5 | Written by MDAnalysis XYZWriter (release 2.4.3)
       H     9.81730   -8.53074  -17.21317
       O     9.86571   -8.86289  -18.13656
      H1    10.01850   -8.02422  -18.57502
       H    11.91530   -5.87763  -14.88462
       O    11.33986   -6.01324  -15.63108
      H1    10.57814   -6.51680  -15.26113
       H     7.63570   -9.72393  -16.67524
       O     7.82072  -10.63797  -16.78152
      H1     8.55280  -10.71444  -17.42846
       H     9.63675   -8.92108  -14.60460
       O     9.38940   -8.18477  -15.23463
      H1     8.47968   -7.98958  -15.08552

