12
frame 6 | Written by MDAnalysis XYZWriter (release 2.4.3)
       H    -6.56949   -7.31074   10.15191
       O    -7.46536   -7.49959    9.79371
      H1    -7.47304   -8.46932    9.76811
       H    -4.39028   -7.41684   11.27491
       O    -4.86894   -6.88951   10.65862
      H1    -4.53136   -7.12000    9.77365
       H    -8.96406   -6.65065   11.35016
       O    -9.27593   -6.60206   12.30016
      H1    -8.71567   -5.89062   12.68465
       H    -8.02906   -7.63638    7.97307
       O    -8.15273   -7.68880    7.03419
      H1    -8.55704   -8.56055    6.90740

