12
frame 5 | Written by MDAnalysis XYZWriter (release 2.4.3)
       H    10.63615    6.74411   18.74336
       O    11.00627    6.18217   19.45258
      H1    11.06015    5.39832   18.97004
       H    11.80176    4.29029   17.90562
       O    10.84659    4.11164   17.77628
      H1    10.71961    3.26493   18.18432
       H     9.11010    3.83853   16.78037
       O     8.43171    3.64125   16.08756
      H1     8.86914    3.95718   15.32107
       H     9.20823    2.34375   19.49628
       O     9.86365    1.78180   19.03554
      H1    10.46064    1.48034   19.74109

