12
frame 0 | Written by MDAnalysis XYZWriter (release 2.4.3)
       H    -9.92012  -16.05290   -3.06312
       O    -9.60970  -15.58645   -3.84832
      H1    -8.90070  -16.17044   -4.20607
       H    -8.33660  -18.08296   -5.49455
       O    -7.70287  -17.34415   -5.27395
      H1    -7.40269  -17.03925   -6.16995
       H   -12.57799  -15.03208   -5.54530
       O   -11.83352  -15.73843   -5.48862
      H1   -11.16427  -15.40112   -4.85837
       H    -7.97205  -17.17638   -2.41714
       O    -7.29831  -16.50833   -2.09148
      H1    -7.35366  -15.77950   -2.75195

