12
frame 6 | Written by MDAnalysis XYZWriter (release 2.4.3)
       H     3.36774   -6.16790   -6.74181
       O     3.38319   -5.32090   -7.23320
      H1     2.47840   -5.33597   -7.58585
       H     0.39923   -7.76830   -3.16755
       O     0.85497   -6.95086   -3.40464
      H1     1.69495   -7.08225   -3.84659
       H     3.93036   -7.74444   -5.22710
       O     3.33396   -7.00462   -5.03445
      H1     2.54388   -7.35035   -5.42832
       H     2.22764   -8.53884   -6.95871
       O     1.49589   -8.46894   -6.35446
      H1     1.49299   -9.29664   -5.81652

