12
frame 6 | Written by MDAnalysis XYZWriter (release 2.4.3)
       H    19.03281  -18.95018    2.11457
       O    19.44866  -19.45992    2.81248
      H1    18.69529  -20.02087    3.00617
       H    15.27528  -18.65227   -1.15254
       O    15.74423  -17.83065   -1.26328
      H1    15.79840  -17.44125   -0.35777
       H    17.17427  -17.16632    1.27311
       O    16.23258  -16.79133    1.31801
      H1    16.13035  -16.37570    2.16167
       H    19.42564  -17.67921    0.10105
       O    18.59132  -17.85696    0.62389
      H1    18.21253  -18.68378    0.22052

