12
frame 0 | Written by MDAnalysis XYZWriter (release 2.4.3)
       H    12.25001  -13.94326   15.34204
       O    11.32085  -14.03798   15.69509
      H1    10.72259  -14.09668   14.93310
       H    13.12877  -11.79985   14.77905
       O    13.00695  -11.13991   14.09248
      H1    12.46353  -11.56154   13.42129
       H    14.71152  -14.37419   15.12952
       O    14.01863  -14.10644   14.55292
      H1    14.44920  -13.86352   13.70222
       H    10.98155  -17.09722   16.97813
       O    11.17857  -16.84800   16.05284
      H1    11.10346  -15.90333   16.05812

