12
frame 6 | Written by MDAnalysis XYZWriter (release 2.4.3)
       H    -9.06112    2.99493    6.15633
       O    -8.23964    2.76765    5.68452
      H1    -7.96145    1.93982    6.02561
       H   -10.42105    4.88636    7.21311
       O   -10.14183    4.10288    7.70124
      H1    -9.28255    4.32148    8.06802
       H    -7.89461    2.91209    3.89312
       O    -7.56571    3.10490    2.98231
      H1    -6.88553    3.72582    3.17687
       H   -10.46237    2.14741    7.56914
       O   -10.47995    1.25077    7.17579
      H1   -11.12313    0.71947    7.67173

