12
frame 6 | Written by MDAnalysis XYZWriter (release 2.4.3)
       H     2.86329   -4.13109  -19.20416
       O     3.17708   -5.05291  -19.04002
      H1     3.30258   -5.45937  -19.91005
       H     4.43262   -5.39125  -17.96287
       O     5.09835   -5.50311  -17.28802
      H1     5.78517   -5.11059  -17.80551
       H     3.97098   -4.97090  -13.95337
       O     4.79111   -4.89556  -14.49150
      H1     4.61812   -4.94947  -15.44262
       H     2.68993   -3.77196  -16.01522
       O     2.15523   -4.52244  -16.35732
      H1     2.66173   -4.85220  -17.10445

