12
frame 6 | Written by MDAnalysis XYZWriter (release 2.4.3)
       H   -14.78833  -15.99288  -18.17043
       O   -14.58925  -16.92306  -18.12822
      H1   -14.31701  -17.16154  -19.04277
       H   -17.42449  -18.49910  -18.78287
       O   -17.84482  -18.76510  -19.58951
      H1   -17.82311  -18.07908  -20.24959
       H   -16.23898  -14.10112  -17.64965
       O   -16.82678  -14.85382  -17.90778
      H1   -17.73639  -14.73699  -17.53271
       H   -17.14732  -17.82449  -16.62341
       O   -16.53457  -18.31841  -17.18608
      H1   -15.83060  -17.64666  -17.41783

