12
frame 7 | Written by MDAnalysis XYZWriter (release 2.4.3)
       H    -5.98425  -16.27773   18.06161
       O    -5.56398  -15.91184   17.28104
      H1    -6.11305  -15.13919   17.06425
       H    -3.28087  -14.11691   16.47552
       O    -3.06270  -15.08094   16.48359
      H1    -3.85739  -15.48678   16.92467
       H    -7.92545  -15.66677   16.51598
       O    -8.50075  -16.36720   16.35130
      H1    -8.02264  -17.09695   15.88189
       H    -6.87664  -18.47953   18.23087
       O    -7.21429  -17.72867   18.75108
      H1    -8.05113  -17.48481   18.32298

