12
frame 7 | Written by MDAnalysis XYZWriter (release 2.4.3)
       H    -9.54444  -17.20491   -8.74794
       O    -9.11235  -16.79816   -9.50689
      H1    -8.62167  -17.55785   -9.85513
       H   -10.68389  -15.77067   -6.97096
       O   -10.44367  -14.80431   -7.04420
      H1    -9.79080  -14.57595   -6.29220
       H    -5.39400  -16.71689   -7.77715
       O    -6.06831  -17.20838   -8.25327
      H1    -6.76874  -16.57046   -8.21877
       H    -8.06981  -15.09332   -8.99689
       O    -7.85000  -14.80794   -8.04471
      H1    -8.69886  -15.03866   -7.58159

