12
frame 0 | Written by MDAnalysis XYZWriter (release 2.4.3)
       H    16.87198   10.67698   17.67419
       O    16.63144    9.79704   17.28850
      H1    15.94049   10.05650   16.67070
       H    17.77002   12.40011   19.22592
       O    17.89729   11.82010   18.47022
      H1    18.39504   11.05422   18.76452
       H    15.61769    9.91615   18.67153
       O    15.07083   10.05966   19.42513
      H1    15.53570   10.33828   20.23906
       H    12.52112    9.48133   17.05086
       O    13.11922    8.81162   17.32872
      H1    13.59140    9.13015   18.09473

