12
frame 6 | Written by MDAnalysis XYZWriter (release 2.4.3)
       H   -16.28728   -4.83127   -1.59739
       O   -16.95673   -4.11556   -1.72589
      H1   -17.29746   -4.28679   -2.56764
       H   -13.36609   -2.94742   -1.52971
       O   -12.50346   -3.13348   -1.86329
      H1   -11.97368   -3.08991   -1.09167
       H   -16.17474   -2.27233   -3.51203
       O   -16.01667   -1.39741   -3.83916
      H1   -15.19613   -1.33130   -4.29818
       H   -15.85741   -2.65488   -1.21955
       O   -15.07367   -2.30836   -0.83285
      H1   -15.00647   -1.40266   -1.12143

