12
frame 6 | Written by MDAnalysis XYZWriter (release 2.4.3)
       H    11.52829   14.59458  -17.68265
       O    10.71207   14.20768  -18.05510
      H1    10.07601   14.90248  -17.95020
       H    13.63940   14.15832  -17.87529
       O    13.30520   15.06513  -17.65833
      H1    13.51332   15.68460  -18.37859
       H    14.42784   17.20345  -15.73031
       O    14.61666   16.40807  -15.14996
      H1    14.35016   15.66943  -15.66454
       H    16.04371   14.23813  -18.66732
       O    16.65101   13.70821  -18.14177
      H1    17.49936   14.08092  -18.38901

