12
frame 7 | Written by MDAnalysis XYZWriter (release 2.4.3)
       H    12.53700  -10.02784   15.90777
       O    13.34777  -10.25771   16.41598
      H1    13.65804   -9.42962   16.74862
       H    10.45633  -10.21430   15.74355
       O    10.29187   -9.92979   16.67927
      H1    10.57948  -10.66269   17.24684
       H    10.01622  -12.07170   19.55514
       O    10.27431  -12.51927   18.75882
      H1    11.22411  -12.69802   18.86107
       H     7.48042   -8.29171   17.25526
       O     7.69071   -9.09010   16.79402
      H1     8.55953   -9.45121   17.02430

