12
frame 7 | Written by MDAnalysis XYZWriter (release 2.4.3)
       H    14.88014   11.91998   -3.87069
       O    14.28327   12.07746   -4.60437
      H1    13.79508   11.25385   -4.78501
       H    14.28043   13.04143   -6.32663
       O    13.99125   13.45581   -7.16962
      H1    14.77085   13.76513   -7.68376
       H    12.85344   10.02408   -6.43262
       O    12.87560    9.81018   -5.49440
      H1    11.97807    9.49406   -5.36428
       H    15.42973    7.37561   -4.59028
       O    14.45632    7.65210   -4.73459
      H1    14.23046    8.49223   -4.26568

