12
frame 7 | Written by MDAnalysis XYZWriter (release 2.4.3)
       H    13.96786  -12.73873    3.53463
       O    13.20309  -12.53783    3.01898
      H1    12.49360  -13.18433    3.09739
       H    10.75370  -14.10673    1.54566
       O    11.12743  -14.27877    2.43270
      H1    11.20630  -15.26224    2.42621
       H    13.90580  -12.35625    1.41225
       O    14.26502  -12.19069    0.52416
      H1    15.12644  -12.69525    0.44344
       H    12.55900  -11.11184    4.47674
       O    11.68200  -10.73983    4.63441
      H1    11.72713   -9.96860    5.24085

