12
frame 6 | Written by MDAnalysis XYZWriter (release 2.4.3)
       H     1.22344    9.02825  -10.05639
       O     0.84623    8.15448  -10.21060
      H1     0.75478    7.85511   -9.27938
       H     3.99605    9.85035  -11.59336
       O     4.84458    9.76925  -11.14988
      H1     5.39755   10.38070  -11.70034
       H     2.15775   10.16764  -12.58364
       O     2.43795    9.27051  -12.51158
      H1     1.88731    8.89752  -11.89115
       H     4.46611    7.39143  -14.11481
       O     3.79027    7.04128  -13.52094
      H1     3.62894    7.76357  -12.94264

