12
frame 7 | Written by MDAnalysis XYZWriter (release 2.4.3)
       H     2.14093    3.55865    9.20895
       O     2.66623    4.17729    9.75626
      H1     3.51298    3.64946    9.94077
       H    -1.63605    4.54132    9.50885
       O    -1.94223    4.31088    8.67589
      H1    -2.87402    4.04342    8.76236
       H     0.31487    5.33687   10.11742
       O    -0.37235    5.15938   10.74683
      H1    -0.40763    5.96753   11.29270
       H     1.49175    5.19995   12.23267
       O     2.08757    5.48062   12.86522
      H1     1.62692    5.91005   13.56558

