12
frame 0 | Written by MDAnalysis XYZWriter (release 2.4.3)
       H     3.02845  -17.27383  -15.38445
       O     3.93027  -17.20860  -15.62093
      H1     4.28475  -17.95619  -15.14248
       H     6.88861  -18.77618  -14.58380
       O     7.67742  -18.76996  -15.21281
      H1     7.39759  -18.14202  -15.94231
       H     5.47268  -19.75573  -17.66415
       O     4.73494  -19.07981  -17.88376
      H1     4.84008  -18.45637  -17.12802
       H     7.54947  -16.70146  -18.35096
       O     6.93706  -16.22346  -17.78855
      H1     6.30798  -15.89877  -18.44233

