12
frame 6 | Written by MDAnalysis XYZWriter (release 2.4.3)
       H     5.44330  -15.55102  -17.07976
       O     5.76814  -14.80160  -16.55589
      H1     6.70554  -14.69332  -16.60689
       H     5.14558  -11.62029  -14.62042
       O     5.18106  -11.69533  -15.54103
      H1     5.49137  -12.56068  -15.73301
       H     4.32617  -17.30084  -15.30239
       O     4.36334  -16.50941  -14.75565
      H1     5.07554  -15.84976  -15.07639
       H     3.67837  -13.08445  -18.42837
       O     4.24102  -13.83610  -18.63913
      H1     4.54949  -13.98748  -17.73158

