12
frame 0 | Written by MDAnalysis XYZWriter (release 2.4.3)
       H    -5.37488   -1.90796   -3.26397
       O    -4.87568   -2.57039   -3.75872
      H1    -3.90225   -2.35044   -3.73598
       H    -6.78797   -7.07460   -4.26520
       O    -5.83590   -6.99209   -4.47884
      H1    -5.72779   -7.24982   -5.42210
       H    -5.83096   -5.46462   -3.26200
       O    -6.03322   -4.72136   -2.66600
      H1    -5.59178   -3.97369   -3.11345
       H    -3.92021   -5.38478   -0.23044
       O    -4.84156   -5.65559   -0.31308
      H1    -5.15893   -5.34054   -1.12169

