12
frame 6 | Written by MDAnalysis XYZWriter (release 2.4.3)
       H    -9.35682   -4.74452  -16.70148
       O    -9.51757   -5.39804  -17.38860
      H1    -9.56294   -5.05704  -18.28590
       H   -11.49306   -7.51473  -16.46283
       O   -11.60679   -6.63108  -16.14927
      H1   -10.89327   -6.07512  -16.54408
       H   -14.43852   -5.43429  -16.94290
       O   -14.36549   -6.34158  -16.52719
      H1   -13.38422   -6.55220  -16.39672
       H   -12.21871   -8.25756  -13.39975
       O   -12.33104   -7.29636  -13.48956
      H1   -12.03576   -7.18044  -14.43835

