12
frame 6 | Written by MDAnalysis XYZWriter (release 2.4.3)
       H     8.72349  -16.85193   -0.13326
       O     9.02956  -16.35407    0.67929
      H1     8.76072  -16.90716    1.41219
       H    10.00733  -19.13053    5.05364
       O     9.29801  -18.64523    5.44924
      H1     9.56162  -18.20369    6.22132
       H    11.43653  -16.81931    2.04316
       O    11.30956  -17.22028    2.97235
      H1    10.39484  -17.04018    3.12924
       H     8.81437  -17.23041    4.31958
       O     8.76865  -16.79120    3.45862
      H1     8.65828  -15.91083    3.69922

