12
frame 0 | Written by MDAnalysis XYZWriter (release 2.4.3)
       H   -17.57379   -5.37469  -15.47937
       O   -18.50908   -5.25642  -15.33270
      H1   -18.71736   -5.94351  -14.65103
       H   -16.68443   -8.18729  -11.99654
       O   -17.10445   -8.96083  -11.57036
      H1   -17.54511   -8.71060  -10.74512
       H   -14.96111   -5.59032  -15.75040
       O   -15.52802   -5.28641  -15.06091
      H1   -15.71564   -6.10241  -14.53796
       H   -17.72018   -6.58382  -12.59719
       O   -16.75529   -6.48259  -12.44710
      H1   -16.57402   -5.68082  -11.90890

