12
frame 7 | Written by MDAnalysis XYZWriter (release 2.4.3)
       H    12.48769    2.48763    5.47336
       O    12.00711    3.25184    5.86228
      H1    11.06592    2.85602    5.93252
       H     9.57875   -2.24195    4.25129
       O     9.57224   -1.22713    4.14151
      H1     8.64292   -1.03112    3.85288
       H    13.91372   -1.37254    3.84965
       O    14.18626   -0.46109    3.72715
      H1    13.35107    0.04652    3.65280
       H    11.00913   -0.02086    3.94987
       O    11.77467    0.54167    3.72838
      H1    11.57937    1.01939    2.89411

