12
frame 7 | Written by MDAnalysis XYZWriter (release 2.4.3)
       H     2.54339   10.89892   -2.42767
       O     2.59420   10.09310   -2.94391
      H1     2.78121    9.38673   -2.35045
       H    -0.48519    8.98383   -4.88695
       O    -0.76746    8.72641   -5.78435
      H1    -0.62553    9.44525   -6.38807
       H    -0.34125    9.15654   -0.19113
       O    -0.60418    8.47771   -0.81846
      H1    -0.47179    8.97130   -1.65948
       H     0.86407    9.60017   -3.18601
       O    -0.07788    9.65632   -3.34312
      H1    -0.30224   10.46957   -2.78696

