12
frame 7 | Written by MDAnalysis XYZWriter (release 2.4.3)
       H    15.20912    1.97826  -18.19318
       O    15.87657    2.44755  -18.70863
      H1    15.98391    1.96805  -19.56025
       H    15.20345    4.16659  -18.42471
       O    15.25319    5.07814  -18.46712
      H1    15.64829    5.35554  -19.34411
       H    17.66224   -0.06806  -18.41029
       O    17.74147   -1.02915  -18.60334
      H1    17.38400   -1.10418  -19.50524
       H    18.78626    1.25472  -17.29892
       O    17.83671    1.35230  -17.10201
      H1    17.47634    2.04325  -17.68515

