12
frame 8 | Written by MDAnalysis XYZWriter (release 2.4.3)
       H     9.23234   13.25102  -12.56734
       O     8.95810   13.83685  -13.35478
      H1     8.47013   13.22098  -13.94123
       H     9.77325   11.98664  -10.63394
       O    10.24999   12.38500  -11.41086
      H1    10.13680   11.82443  -12.21223
       H     9.20689   16.88568  -13.71290
       O     9.91488   16.31306  -14.15313
      H1     9.78930   15.35033  -13.92223
       H     8.29120   16.02265  -10.87028
       O     7.69790   15.43194  -11.30155
      H1     8.24615   15.07798  -12.03229

