12
frame 0 | Written by MDAnalysis XYZWriter (release 2.4.3)
       H   -16.53992  -11.97378  -16.54299
       O   -16.67010  -12.95616  -16.36861
      H1   -16.91560  -12.88021  -15.42328
       H   -16.24392  -10.58661  -18.35773
       O   -15.70800  -10.50398  -17.55612
      H1   -16.15941   -9.89480  -16.94382
       H   -14.58098   -9.68464  -18.54590
       O   -14.07397   -9.13497  -19.13266
      H1   -13.24528   -9.05261  -18.71684
       H   -18.00026   -9.13913  -15.50643
       O   -17.08306   -8.77425  -15.67920
      H1   -17.27596   -7.95385  -16.22365

