12
frame 7 | Written by MDAnalysis XYZWriter (release 2.4.3)
       H   -17.86982   -9.88994   11.92715
       O   -18.11699  -10.75542   12.28656
      H1   -19.07766  -10.95603   12.34896
       H   -17.66610  -10.48965   14.17768
       O   -17.59036  -10.19568   15.09341
      H1   -16.75266   -9.75082   14.99960
       H   -14.94161  -12.30195   12.69588
       O   -15.27981  -11.38584   12.72539
      H1   -16.22126  -11.54998   12.62211
       H   -18.37900  -13.08760   16.62591
       O   -18.73868  -12.87475   15.75782
      H1   -18.57236  -11.96836   15.60164

