12
frame 7 | Written by MDAnalysis XYZWriter (release 2.4.3)
       H    -7.06659   -7.13333    9.77285
       O    -8.01272   -7.20299    9.69105
      H1    -8.22073   -8.14754    9.66391
       H    -9.56930  -10.03125    9.69507
       O    -8.88867   -9.75251    9.06267
      H1    -8.32312  -10.46937    8.79412
       H   -11.46502  -10.37778   10.94770
       O   -10.54635  -10.60921   10.92113
      H1   -10.57210  -11.39544   10.32080
       H    -8.91541   -7.58115    8.04521
       O    -8.98233   -7.41202    7.10891
      H1    -9.36685   -8.23528    6.82706

