12
frame 8 | Written by MDAnalysis XYZWriter (release 2.4.3)
       H    -1.35642   -1.84936    1.56380
       O    -0.39873   -1.98966    1.47448
      H1    -0.32120   -2.76839    0.89297
       H    -1.02211    0.27438    1.23348
       O    -1.34252    1.17741    1.08234
      H1    -2.28295    0.93015    1.22671
       H    -3.53311   -1.95647    2.38717
       O    -3.17064   -1.88870    1.53119
      H1    -3.86245   -1.42724    1.08842
       H     0.39666   -0.94498    0.37544
       O     0.69557   -0.42851   -0.40697
      H1    -0.09908   -0.14460   -0.92639

