12
frame 7 | Written by MDAnalysis XYZWriter (release 2.4.3)
       H    17.86073    3.91387   -6.56214
       O    18.50202    4.08612   -5.84118
      H1    18.82931    3.25552   -5.52972
       H    18.18469   -1.73205   -3.66209
       O    17.58501   -2.45586   -3.74615
      H1    16.75348   -2.07830   -3.53326
       H    19.62823   -0.25846   -4.63448
       O    18.99480    0.25593   -4.14481
      H1    18.20301    0.25970   -4.70282
       H    15.98540   -0.09959   -5.73020
       O    16.50494    0.26530   -4.95825
      H1    15.98372    0.05962   -4.14881

