12
frame 8 | Written by MDAnalysis XYZWriter (release 2.4.3)
       H   -17.76019  -15.56520   -7.27383
       O   -17.18727  -15.07137   -6.63275
      H1   -16.46981  -15.61749   -6.37135
       H   -17.60844  -13.27790   -6.14702
       O   -17.83409  -12.37393   -6.01471
      H1   -17.70837  -11.97467   -5.14919
       H   -19.82887  -10.91204   -8.11956
       O   -19.15804  -11.56173   -8.30621
      H1   -18.63475  -11.60734   -7.49889
       H   -16.70878  -11.10268   -7.10873
       O   -15.81995  -10.73948   -7.21199
      H1   -16.01972   -9.78336   -7.33082

