12
frame 7 | Written by MDAnalysis XYZWriter (release 2.4.3)
       H     4.59257  -10.63956    2.06299
       O     5.52204  -10.97580    1.97703
      H1     6.10579  -10.21707    1.88684
       H     8.72908  -12.91552    2.59969
       O     7.97781  -13.50878    2.78983
      H1     7.20398  -13.21172    2.33992
       H     7.19127  -10.28978    5.45293
       O     6.66734  -11.05829    5.15565
      H1     6.75815  -11.16611    4.21327
       H     5.05588  -10.40386    0.29307
       O     4.64913  -10.16320   -0.58805
      H1     4.05493  -10.94518   -0.77591

