12
frame 8 | Written by MDAnalysis XYZWriter (release 2.4.3)
       H     4.44517   12.33019   18.87569
       O     4.04441   12.77820   18.10894
      H1     4.66486   12.75704   17.36740
       H     2.65189   16.25299   15.67991
       O     2.46126   16.46463   16.63386
      H1     3.08658   16.04132   17.18481
       H     3.72546   14.31226   19.21554
       O     3.43210   15.19702   19.11327
      H1     3.21575   15.56929   19.96107
       H     6.24585   16.72720   19.63080
       O     5.59477   16.80574   18.93052
      H1     4.94124   16.08045   19.04490

