12
frame 7 | Written by MDAnalysis XYZWriter (release 2.4.3)
       H   -17.72174   18.69165    5.99499
       O   -17.94851   19.62481    6.06397
      H1   -17.65537   19.89722    6.90948
       H   -16.27510   16.69449    5.17010
       O   -17.17340   16.98926    5.00651
      H1   -17.28957   16.94713    4.03004
       H   -16.03882   17.95463    2.60670
       O   -15.29024   17.36625    2.72697
      H1   -15.37428   16.62624    2.12870
       H   -18.05412   15.78228    5.93075
       O   -18.63809   15.23376    6.47357
      H1   -19.34620   15.84794    6.72548

