12
frame 7 | Written by MDAnalysis XYZWriter (release 2.4.3)
       H    13.83472  -12.19653  -19.92654
       O    14.34152  -11.66022  -19.24372
      H1    13.77328  -10.85561  -19.13677
       H    10.68322  -13.22112  -16.56614
       O    11.46656  -13.33563  -15.97896
      H1    11.88505  -14.16909  -16.23246
       H    13.91294  -15.55506  -18.82089
       O    13.85858  -15.82585  -19.73020
      H1    14.78135  -15.88370  -20.03275
       H    14.13271  -14.75228  -16.49167
       O    13.36402  -15.25135  -16.85479
      H1    13.50827  -16.17555  -16.62955

