12
frame 7 | Written by MDAnalysis XYZWriter (release 2.4.3)
       H    -0.04255  -13.37078    5.36353
       O     0.64614  -13.11428    6.01583
      H1     1.39218  -12.91061    5.45383
       H     3.45102  -16.25662    5.63609
       O     3.33043  -17.06306    6.18977
      H1     2.37236  -17.05862    6.38866
       H    -0.22424  -16.19742    6.56051
       O     0.70407  -16.09611    6.33418
      H1     0.99414  -15.21564    6.11764
       H     0.37687  -17.56012    5.17926
       O     0.22411  -18.30972    4.63272
      H1     0.61527  -18.01371    3.82942

