12
frame 0 | Written by MDAnalysis XYZWriter (release 2.4.3)
       H    11.03987  -15.60562    4.35287
       O    11.91609  -15.24847    4.64610
      H1    12.47956  -16.01656    4.68562
       H     8.49399  -15.82206    3.32587
       O     9.21644  -15.89331    3.97166
      H1     9.02603  -16.71922    4.47190
       H    10.41156  -18.78448    4.66341
       O    11.24866  -19.24534    4.78236
      H1    11.07199  -20.16772    5.03368
       H     8.68901  -19.22299    4.82780
       O     8.76578  -18.33177    5.20022
      H1     9.16307  -18.38441    6.08143

