12
frame 0 | Written by MDAnalysis XYZWriter (release 2.4.3)
       H     3.02455   16.82206   13.09988
       O     2.30639   16.63750   13.74274
      H1     1.76733   16.04697   13.15517
       H     4.66533   17.91126   12.13570
       O     4.35260   16.97695   11.94036
      H1     4.92078   16.54698   11.27221
       H     6.31509   15.45680   12.83970
       O     7.20018   15.78975   13.05679
      H1     7.89457   15.14800   12.83282
       H     5.92107   15.44212    9.05155
       O     5.53632   15.36384    9.91709
      H1     4.56241   15.21907    9.75621

