12
frame 8 | Written by MDAnalysis XYZWriter (release 2.4.3)
       H    15.14627    6.94484  -17.06188
       O    15.42134    7.65230  -17.75960
      H1    15.92617    7.13045  -18.39311
       H    16.74352   10.61425  -17.18226
       O    16.54248   11.52898  -17.22185
      H1    17.32217   11.82487  -17.78517
       H    17.99659    8.52652  -18.42444
       O    18.23720    8.90922  -17.58845
      H1    19.06169    9.44373  -17.82954
       H    17.51768    9.89542  -14.72073
       O    18.41159    9.76802  -15.02573
      H1    18.29531    9.34761  -15.88552

