12
frame 0 | Written by MDAnalysis XYZWriter (release 2.4.3)
       H   -14.86040   -4.02135    4.20828
       O   -15.46232   -3.52047    3.62623
      H1   -15.19041   -3.73337    2.71168
       H   -17.76025   -4.27705    4.20719
       O   -18.07859   -3.97248    3.33748
      H1   -17.15950   -3.88063    2.98037
       H   -19.17202   -5.67298    0.57094
       O   -18.61020   -5.99932    1.24833
      H1   -18.43229   -5.21844    1.76676
       H   -16.12051   -5.08771    5.25408
       O   -17.02504   -5.23354    5.51468
      H1   -17.14173   -5.07564    6.45758

