12
frame 8 | Written by MDAnalysis XYZWriter (release 2.4.3)
       H    18.05569  -11.89668    3.41423
       O    17.44176  -11.70442    4.11613
      H1    17.10070  -10.82601    3.90693
       H    15.03884  -10.42745    1.09331
       O    15.05764   -9.46284    0.97674
      H1    15.31113   -9.09211    1.89708
       H    17.33692   -8.29552    3.00331
       O    16.64615   -8.98187    3.12634
      H1    16.37109   -8.61224    3.98273
       H    15.76643   -8.67111    6.24426
       O    16.13001   -8.07361    5.59812
      H1    17.07109   -8.16109    5.83093

