12
frame 0 | Written by MDAnalysis XYZWriter (release 2.4.3)
       H     5.26158   16.96310  -13.30493
       O     4.91371   17.63256  -13.91863
      H1     3.96332   17.62746  -13.77042
       H     7.40748   16.28531  -11.79900
       O     6.49190   16.09880  -11.65669
      H1     6.53144   16.29796  -10.71038
       H     3.21657   18.73327  -11.99237
       O     3.08478   19.29170  -11.26171
      H1     2.32380   18.99138  -10.80350
       H     1.77738   17.25001  -13.92549
       O     2.00429   18.10290  -14.21344
      H1     2.39230   17.96659  -15.08692

