12
frame 9 | Written by MDAnalysis XYZWriter (release 2.4.3)
       H    -3.23989   -4.53777   11.74451
       O    -3.07347   -4.05289   10.93731
      H1    -3.68436   -4.22724   10.21210
       H    -6.87627   -4.43574   11.41365
       O    -6.70577   -4.54803   12.40055
      H1    -6.59807   -3.72321   12.78737
       H    -5.48849   -9.14829   11.65565
       O    -5.15925   -8.29706   11.32278
      H1    -5.39191   -7.62799   11.94741
       H    -5.37535   -5.60451   13.29491
       O    -4.45953   -5.92232   13.30689
      H1    -4.39330   -6.52016   14.06397

