12
frame 8 | Written by MDAnalysis XYZWriter (release 2.4.3)
       H   -10.52557    5.56613  -13.00964
       O   -10.01283    6.19349  -13.56490
      H1    -9.11755    5.86363  -13.46091
       H   -10.15466    3.19742  -11.85853
       O    -9.21148    2.90193  -11.75182
      H1    -8.74584    3.68771  -12.14861
       H    -4.93691    2.77123  -10.37743
       O    -5.21605    2.81034  -11.28783
      H1    -5.59115    3.68246  -11.31762
       H    -7.25575    4.23412  -13.80432
       O    -7.35970    4.67470  -12.98699
      H1    -6.65811    5.38564  -13.00877

