12
frame 0 | Written by MDAnalysis XYZWriter (release 2.4.3)
       H     8.18353   10.57089  -16.82892
       O     8.93289   10.27070  -16.29200
      H1     9.72084   10.72560  -16.61605
       H     6.15018    8.45759  -14.47501
       O     5.84101    8.84784  -15.30382
      H1     6.74405    9.10088  -15.61534
       H     8.80263   10.18656  -14.62569
       O     8.92042    9.91093  -13.65974
      H1     8.36566   10.50804  -13.09266
       H     6.52598   11.89286  -17.82481
       O     6.52926   10.97740  -17.43460
      H1     6.34576   10.36570  -18.13416

