12
frame 0 | Written by MDAnalysis XYZWriter (release 2.4.3)
       H    15.81044  -16.57988   12.47866
       O    16.36813  -17.12622   11.94888
      H1    17.23235  -17.23353   12.40607
       H    17.88473  -14.25516   11.48005
       O    18.27285  -14.00621   10.67199
      H1    19.19123  -14.17041   10.62426
       H    17.33018  -17.45587   15.70831
       O    18.00603  -18.11211   15.88273
      H1    17.67853  -19.02488   16.01198
       H    19.43629  -17.12074   12.01074
       O    18.90522  -17.05037   12.83691
      H1    19.46810  -17.17814   13.56734

