12
frame 8 | Written by MDAnalysis XYZWriter (release 2.4.3)
       H    -7.10638  -15.18882    6.59210
       O    -6.33684  -15.16628    5.93246
      H1    -6.67096  -15.63007    5.18765
       H   -10.71088  -19.07834    5.53590
       O    -9.77086  -18.97700    5.76145
      H1    -9.60266  -19.90974    5.92354
       H    -7.29059  -17.89044    4.24913
       O    -6.64487  -17.13699    4.15319
      H1    -6.97821  -16.81815    3.33973
       H    -8.05103  -17.41797    6.80738
       O    -7.75369  -17.61499    7.72402
      H1    -7.17513  -16.91551    8.05102

