12
frame 8 | Written by MDAnalysis XYZWriter (release 2.4.3)
       H    -1.78799  -18.20508   16.76526
       O    -0.99944  -18.70366   16.53415
      H1    -0.48752  -18.74098   17.35454
       H     3.34725  -19.69619   16.71929
       O     3.87295  -19.04295   16.22436
      H1     4.27414  -18.43565   16.88581
       H     2.05768  -16.99031   17.70939
       O     2.19078  -16.08277   17.47460
      H1     1.53794  -15.82612   16.80551
       H     1.27662  -18.99923   19.12383
       O     1.09578  -18.69536   18.22122
      H1     1.29246  -19.39912   17.60173

