12
frame 8 | Written by MDAnalysis XYZWriter (release 2.4.3)
       H   -16.35379   -0.55308  -10.65278
       O   -15.68662   -0.91777  -11.30598
      H1   -16.05766   -1.63970  -11.88341
       H   -17.10735   -3.44728  -13.46456
       O   -16.13573   -3.26513  -13.37400
      H1   -15.74490   -4.10411  -13.24175
       H   -14.81182   -2.27706   -8.50681
       O   -14.82796   -2.83638   -9.25752
      H1   -15.06844   -2.40196  -10.08661
       H   -14.21328   -1.66780  -12.40623
       O   -13.28558   -1.92930  -12.54043
      H1   -12.87848   -1.83147  -11.66957

