12
frame 9 | Written by MDAnalysis XYZWriter (release 2.4.3)
       H   -16.82943   18.40874  -17.36317
       O   -15.92464   18.13741  -17.52959
      H1   -15.70749   17.36911  -16.93107
       H   -15.25923   19.89475  -16.10580
       O   -15.01803   20.06744  -15.21107
      H1   -14.38556   19.37334  -14.89784
       H   -15.63231   16.58055  -20.33519
       O   -15.16686   16.49731  -19.49893
      H1   -15.67393   17.19281  -18.94426
       H   -19.24688   19.09514  -16.75739
       O   -18.30999   19.20418  -16.51358
      H1   -18.05490   19.99649  -17.01363

