12
frame 8 | Written by MDAnalysis XYZWriter (release 2.4.3)
       H    -1.54905   17.40130  -17.30628
       O    -0.79635   17.27573  -16.71498
      H1    -0.75000   16.30557  -16.67406
       H    -1.70096   19.06564  -14.03522
       O    -1.67466   19.08186  -15.00081
      H1    -1.28108   18.28438  -15.40077
       H     3.18967   17.76891  -18.17864
       O     3.71747   17.00294  -17.87666
      H1     4.66553   17.16225  -17.99868
       H     0.44922   18.28963  -18.03209
       O     1.26072   18.72026  -18.43323
      H1     1.67428   19.15784  -17.63694

