12
frame 8 | Written by MDAnalysis XYZWriter (release 2.4.3)
       H   -12.48004   -6.76952   18.32807
       O   -13.01834   -7.54185   18.43206
      H1   -13.93334   -7.17470   18.46188
       H   -10.91850   -4.34860   17.77079
       O   -11.05639   -5.01400   18.52015
      H1   -10.43083   -5.71034   18.29189
       H    -8.09062   -4.06504   16.98144
       O    -8.07443   -4.98574   17.05631
      H1    -7.91754   -5.27649   16.11020
       H    -9.36225   -7.66928   19.06203
       O    -9.41529   -7.14623   18.22322
      H1    -8.49476   -6.90531   18.08884

