12
frame 8 | Written by MDAnalysis XYZWriter (release 2.4.3)
       H   -10.70700  -12.47550   -2.23105
       O    -9.97104  -11.94260   -1.79263
      H1   -10.40397  -11.15662   -1.37743
       H   -12.64700   -9.61741   -3.81918
       O   -12.26308  -10.53882   -3.72826
      H1   -13.00576  -11.13250   -3.80494
       H   -14.98242  -12.15397   -4.10470
       O   -14.30155  -12.73700   -3.62848
      H1   -14.57308  -12.73582   -2.69908
       H   -12.39074  -13.13814   -3.35243
       O   -11.59061  -13.62624   -3.13337
      H1   -11.87653  -14.31348   -2.51018

