12
frame 8 | Written by MDAnalysis XYZWriter (release 2.4.3)
       H     7.99810   -2.00436   16.70870
       O     7.90443   -2.97683   16.76122
      H1     8.81160   -3.17277   17.00550
       H     8.53005    2.14632   16.38794
       O     7.84120    1.49411   16.19510
      H1     7.38533    1.73404   15.39959
       H     5.47659    0.12052   18.21487
       O     5.44549    0.66562   17.42537
      H1     6.29827    0.98432   17.37490
       H     9.09313    0.30661   18.36282
       O     8.37518   -0.30394   18.11363
      H1     7.96974    0.11315   17.36676

