12
frame 8 | Written by MDAnalysis XYZWriter (release 2.4.3)
       H   -10.71088  -19.07834    5.53590
       O    -9.77086  -18.97700    5.76145
      H1    -9.60266  -19.90974    5.92354
       H    -9.11827  -18.40450    2.97342
       O    -8.50038  -19.03189    3.28887
      H1    -8.89264  -19.27862    4.16108
       H   -12.64387  -19.77969    6.63024
       O   -12.66931  -19.10966    5.88814
      H1   -13.10573  -19.62888    5.15456
       H   -10.46126  -16.02773    4.81493
       O   -10.45320  -15.23928    5.39771
      H1   -10.34538  -15.61359    6.28196

