12
frame 8 | Written by MDAnalysis XYZWriter (release 2.4.3)
       H   -13.69347    9.93452  -19.75174
       O   -13.87829   10.03821  -18.82159
      H1   -14.17204    9.17909  -18.51528
       H   -17.52545    7.63267  -17.82740
       O   -17.23982    7.01495  -18.47533
      H1   -16.25819    7.27678  -18.63877
       H   -13.65153    4.68193  -17.64059
       O   -13.85185    5.36306  -17.02000
      H1   -13.05960    5.50142  -16.49719
       H   -14.10510    7.01456  -19.75492
       O   -14.55372    7.17633  -18.92248
      H1   -14.08806    6.61119  -18.26820

