12
frame 9 | Written by MDAnalysis XYZWriter (release 2.4.3)
       H     8.18813   -8.84044  -12.62827
       O     7.48624   -9.51505  -12.83755
      H1     7.88286  -10.13260  -13.48506
       H     9.79187   -9.96595  -15.55226
       O    10.32959   -9.51553  -16.25860
      H1     9.76169   -8.78605  -16.50294
       H    10.54802  -11.66403  -12.03119
       O    11.15545  -11.00225  -12.38068
      H1    11.94315  -11.55676  -12.55417
       H    10.19489  -10.78464  -13.97699
       O     9.24041  -10.96284  -14.37673
      H1     9.13593  -11.85094  -14.03276

