12
frame 8 | Written by MDAnalysis XYZWriter (release 2.4.3)
       H    13.99712   -8.64503   12.58774
       O    14.07187   -9.19854   11.82197
      H1    14.96063   -9.07387   11.53791
       H    17.78175   -6.30883   10.57238
       O    17.03183   -5.73179   10.72959
      H1    16.49158   -6.02029   11.47768
       H    17.06699   -9.72239   10.45788
       O    16.68014   -8.90203   10.76883
      H1    16.34560   -8.43327    9.99470
       H    18.77850   -7.71142    8.91577
       O    19.05332   -7.48230    9.78108
      H1    18.34613   -7.73901   10.40300

