12
frame 9 | Written by MDAnalysis XYZWriter (release 2.4.3)
       H    17.71157   -9.21761   -0.03417
       O    17.35597   -8.48540    0.51884
      H1    16.56406   -8.86504    0.90968
       H    17.32394  -12.26968   -3.80746
       O    16.54407  -11.81661   -3.40259
      H1    16.43865  -10.98836   -3.87927
       H    16.60788   -9.06099   -5.09631
       O    17.31131   -9.68170   -5.13206
      H1    18.14487   -9.15738   -5.12714
       H    17.74557  -10.38987   -2.01282
       O    18.33262  -10.52152   -1.26454
      H1    18.57956  -11.46925   -1.16587

