12
frame 8 | Written by MDAnalysis XYZWriter (release 2.4.3)
       H   -15.51907    7.36843   -8.30654
       O   -15.83412    8.19683   -8.60395
      H1   -16.54791    8.02838   -9.26643
       H   -13.51013    6.91655   -7.18555
       O   -13.95699    6.36860   -7.86239
      H1   -13.21309    6.04995   -8.44532
       H   -18.64865    8.27699   -7.23930
       O   -17.91763    8.33725   -6.57922
      H1   -17.16300    8.68791   -7.08905
       H   -14.95352   10.09034   -8.24814
       O   -14.38929   10.73019   -7.81796
      H1   -14.43045   11.58832   -8.26019

