12
frame 10 | Written by MDAnalysis XYZWriter (release 2.4.3)
       H   -10.84367  -12.22845    0.47231
       O   -11.13828  -12.07606    1.39802
      H1   -10.36577  -11.59505    1.73731
       H   -10.56531  -12.52988   -2.00735
       O   -10.27515  -12.08873   -1.13325
      H1   -10.70215  -11.25212   -1.05621
       H    -8.70523  -12.41072   -2.08951
       O    -7.74817  -12.20699   -2.32193
      H1    -7.42025  -13.06785   -2.68326
       H   -10.68929   -9.36852   -1.20466
       O   -11.62366   -9.65254   -1.17460
      H1   -11.89338   -9.63036   -2.06717

