12
frame 9 | Written by MDAnalysis XYZWriter (release 2.4.3)
       H    19.64239   -0.32843   -5.23796
       O    19.68345    0.28534   -4.47319
      H1    18.77842    0.37458   -4.11808
       H    17.20346    1.28505   -5.96553
       O    17.14997    1.90822   -5.31127
      H1    16.54050    1.50624   -4.69333
       H    14.78423    3.81285   -8.00366
       O    15.09139    3.68476   -7.07526
      H1    15.63739    2.90106   -7.00648
       H    16.43516    0.13378   -8.37893
       O    16.20082    0.99272   -8.07895
      H1    15.21494    0.94776   -8.10142

