12
frame 9 | Written by MDAnalysis XYZWriter (release 2.4.3)
       H   -13.96898   -9.08871   -3.11640
       O   -13.34684   -8.32394   -3.11185
      H1   -13.07522   -8.17315   -4.06952
       H   -15.80801   -9.54889   -4.12655
       O   -15.12695  -10.14156   -3.80672
      H1   -15.60728  -10.93819   -3.67161
       H   -12.42305  -10.11773   -4.04365
       O   -12.39090  -11.03238   -3.96237
      H1   -13.30760  -11.26430   -4.00034
       H   -13.44217   -6.75792   -1.91382
       O   -13.89186   -6.41631   -1.10784
      H1   -13.76843   -5.41693   -1.09432

