12
frame 9 | Written by MDAnalysis XYZWriter (release 2.4.3)
       H    18.69097    5.96334    2.69578
       O    19.45636    6.58272    2.52467
      H1    19.77380    6.43460    1.63375
       H    18.67314    9.82374    0.44506
       O    19.29888    9.16068    0.90730
      H1    18.89428    8.25883    0.95040
       H    16.21993    7.46807   -0.59675
       O    15.31790    7.51272   -1.00772
      H1    15.32593    7.17248   -1.89587
       H    17.59548    5.84749   -0.44240
       O    17.79285    6.78163   -0.28744
      H1    18.50840    7.00278   -0.94637

