12
frame 9 | Written by MDAnalysis XYZWriter (release 2.4.3)
       H     4.66329   -4.76607   16.25964
       O     5.15304   -3.87670   16.17483
      H1     6.04654   -3.99630   15.79535
       H     3.11995   -6.89075   16.66831
       O     3.63793   -6.19884   17.14368
      H1     4.52310   -6.55398   17.32140
       H     6.58982   -6.58006   16.74662
       O     6.16142   -6.88252   17.56065
      H1     6.29545   -6.21741   18.21652
       H     2.37118   -5.23992   17.80108
       O     1.67973   -4.80978   18.36083
      H1     0.86515   -5.33818   18.25435

