12
frame 9 | Written by MDAnalysis XYZWriter (release 2.4.3)
       H     8.31067    4.31353  -13.83173
       O     7.98756    4.03549  -12.92668
      H1     7.94808    4.84290  -12.44912
       H     5.23054    5.68213  -13.08344
       O     5.57873    5.23284  -13.81068
      H1     6.43319    4.84983  -13.62078
       H     8.12317    7.25327  -11.11556
       O     8.31161    6.58354  -11.79288
      H1     8.22835    6.99088  -12.68744
       H     8.53152    2.26259  -10.89481
       O     9.14138    2.12336  -11.59799
      H1     8.94966    2.78531  -12.26378

