12
frame 9 | Written by MDAnalysis XYZWriter (release 2.4.3)
       H   -18.03662    0.52202    2.41660
       O   -17.25413    1.06405    2.21703
      H1   -17.63166    1.95886    2.06324
       H   -13.60991    0.45675    1.23780
       O   -13.64638   -0.37305    1.66065
      H1   -14.55691   -0.62745    1.61704
       H   -11.20284   -3.50515    2.02209
       O   -11.20763   -2.61851    1.64984
      H1   -11.95835   -2.11368    1.91835
       H   -14.00446    2.16644    0.74033
       O   -14.53022    2.40856    1.50131
      H1   -15.06754    1.61541    1.59054

