12
frame 9 | Written by MDAnalysis XYZWriter (release 2.4.3)
       H     9.28766  -12.94534   -1.44948
       O     8.49870  -12.83369   -2.01140
      H1     8.85452  -12.46556   -2.81294
       H     8.87792   -9.74708   -0.03651
       O     9.02875  -10.67199    0.29445
      H1     8.58431  -11.10229   -0.43463
       H     7.15257  -12.88390   -0.70571
       O     6.29521  -12.59925   -0.45699
      H1     6.35095  -12.22461    0.35674
       H     3.26926  -13.98780   -1.55146
       O     4.05385  -13.79696   -2.04972
      H1     4.63627  -13.25280   -1.45968

