12
frame 9 | Written by MDAnalysis XYZWriter (release 2.4.3)
       H    16.24038   -1.65381   18.32142
       O    16.47230   -0.76805   17.96775
      H1    15.59399   -0.36934   18.16896
       H    18.49591    0.13334   15.66946
       O    17.66454   -0.38594   15.62438
      H1    17.43228   -0.57079   16.56253
       H    16.68127    2.78572   17.62431
       O    17.04128    2.45471   18.46635
      H1    18.00298    2.63263   18.38528
       H    18.66366    0.81105   20.20457
       O    18.69353    0.22178   19.44401
      H1    18.01437    0.58718   18.86428

