12
frame 10 | Written by MDAnalysis XYZWriter (release 2.4.3)
       H   -13.92155   -3.57119   -5.87339
       O   -14.14286   -4.35272   -5.30841
      H1   -14.52379   -4.09095   -4.48418
       H   -16.22276   -3.20697   -5.90542
       O   -16.69559   -2.88259   -6.65030
      H1   -16.12912   -2.10899   -6.88923
       H   -14.12982   -6.61503   -7.97162
       O   -13.68363   -6.58933   -7.13047
      H1   -14.06895   -5.84384   -6.66365
       H   -12.15359   -4.28244   -7.80515
       O   -12.52436   -3.52788   -7.38377
      H1   -11.76398   -2.98604   -7.13321

