12
frame 10 | Written by MDAnalysis XYZWriter (release 2.4.3)
       H     4.79920   18.43464  -15.09748
       O     4.12420   17.85233  -14.74388
      H1     4.00949   17.25165  -15.51220
       H     6.97215   17.35700  -14.57565
       O     7.03108   16.98634  -15.47181
      H1     6.64779   16.14415  -15.36774
       H    10.13152   16.80508  -16.53704
       O     9.41560   16.24285  -16.79383
      H1     8.63673   16.63442  -16.40038
       H     5.89602   20.40040  -15.67583
       O     5.76643   19.53899  -16.14790
      H1     6.50447   18.91777  -16.00707

