12
frame 10 | Written by MDAnalysis XYZWriter (release 2.4.3)
       H     8.52632   -3.62147   17.28985
       O     9.20124   -3.51958   16.56805
      H1     9.82929   -2.82978   16.77399
       H     5.22714   -0.71316   17.11523
       O     5.41578   -1.05119   16.24325
      H1     5.19805   -2.00700   16.03428
       H     7.40237   -4.05720   19.14418
       O     7.09103   -4.07576   18.24189
      H1     6.65712   -3.22923   18.11768
       H     6.96901   -6.53563   15.81583
       O     6.76149   -6.63613   16.73665
      H1     7.02314   -5.81888   17.17864

