12
frame 10 | Written by MDAnalysis XYZWriter (release 2.4.3)
       H    -0.46093   10.54777   18.76161
       O    -0.44308   11.52590   18.53502
      H1    -0.72030   11.59508   17.59442
       H    -1.55343    8.11033   17.90912
       O    -1.69438    7.76764   16.99534
      H1    -0.85225    7.72183   16.58230
       H    -2.22056   11.78539   18.60715
       O    -3.15759   11.87957   18.77758
      H1    -3.71157   11.32007   18.16854
       H     0.09839   10.64255   15.60631
       O    -0.54666   11.33443   15.86043
      H1    -0.52047   11.79658   15.03783

