132
frame 9 | Written by MDAnalysis XYZWriter (release 2.4.3)
       H     9.48448   17.17560    3.01902
       O     9.10345   17.98069    3.43747
      H1     8.20161   17.70365    3.71783
       H     7.23531   10.81986   -1.86901
       O     6.43466   10.29271   -2.03293
      H1     5.96284   10.63963   -2.80853
       H    15.05966   15.52390    3.74749
       O    14.17144   15.20215    3.98203
      H1    13.79911   15.83148    4.63007
       H    15.90793   11.45613   -3.99481
       O    15.28099   12.01488   -4.48881
      H1    14.43719   11.96082   -4.01991
       H    10.24177   13.00419   -6.84523
       O    11.12650   12.78755   -7.25494
      H1    11.11808   13.21421   -8.10508
       H     8.00557   12.67973   -5.63987
       O     8.69577   13.10663   -5.10507
      H1     8.34589   13.87778   -4.68153
       H    14.13185   17.97510   -0.69509
       O    14.80725   18.19455   -1.29747
      H1    14.61088   17.73222   -2.07309
       H    11.31818    8.90199   -2.09684
       O    11.79256    9.32540   -1.36073
      H1    11.43339    8.86013   -0.58093
       H     4.98320   13.00714    0.58093
       O     4.77587   12.08322    0.42106
      H1     5.33041   11.87156   -0.36541
       H    11.17527   11.82086   -3.21018
       O    10.37615   11.47592   -3.56645
      H1     9.87250   12.09852   -4.18709
       H    13.38817   19.20700    3.72185
       O    14.17511   18.80534    3.29977
      H1    14.79981   19.56401    3.21400
       H     7.02206   19.33750   -4.64813
       O     6.42878   18.51281   -4.49214
      H1     6.32248   18.43206   -3.53344
       H    10.07574   19.27817   -4.09896
       O    10.58826   19.45813   -4.91655
      H1    11.46844   19.14453   -4.71191
       H    12.70496   12.59067   -1.73990
       O    12.85340   11.81710   -2.33697
      H1    12.40378   11.11234   -1.86323
       H     9.56413   15.12005    0.55733
       O     9.72335   14.65247   -0.30330
      H1    10.20067   13.85567   -0.08794
       H     5.11225   18.97750   -1.72105
       O     4.31464   19.59719   -1.75530
      H1     3.65299   18.97613   -2.18503
       H    13.12936   15.08198    2.37858
       O    12.49958   15.44715    1.73146
      H1    12.83298   16.33231    1.47475
       H     9.64002   14.20121    5.54271
       O     9.81087   13.51927    4.90629
      H1    10.68838   13.22243    4.93444
       H    12.31668   14.28139    0.26574
       O    12.56544   13.87657   -0.57134
      H1    12.43061   14.68519   -1.19372
       H    16.70062   17.12287    1.03657
       O    16.42128   17.98016    0.74309
      H1    15.83335   17.75605   -0.02816
       H     8.48044   16.17251    6.15294
       O     9.26986   16.12652    5.64872
      H1     9.11230   16.69412    4.84527
       H     7.36600   15.06311   -2.34516
       O     7.79639   15.25259   -3.14648
      H1     7.67099   16.23078   -3.24920
       H     9.97076   17.38346   -2.29574
       O     9.44545   18.17121   -2.39527
      H1     8.54357   18.12276   -2.11761
       H    11.00996   15.53961   -2.87891
       O    11.29249   15.93552   -2.03483
      H1    10.64121   15.62709   -1.38715
       H     9.60563   11.12101   -2.00239
       O     9.11142   10.96832   -1.14602
      H1     9.21457    9.97948   -1.06647
       H    12.49590   18.56046    0.79727
       O    13.15707   17.87003    0.85202
      H1    13.61564   18.07217    1.63771
       H    11.29553   18.37428    5.51476
       O    11.25299   19.00280    4.76331
      H1    10.53086   18.76575    4.18593
       H     6.10920   18.93490    1.73295
       O     6.81122   18.30281    1.40366
      H1     7.57145   18.40828    1.96887
       H    10.35000   14.41826   -5.24014
       O    10.91321   15.04748   -4.79236
      H1    10.86525   15.79071   -5.32163
       H     7.07592   18.47758   -0.54196
       O     6.94789   18.75026   -1.48059
      H1     7.19253   19.69198   -1.52646
       H    13.55295   18.65582   -5.89382
       O    13.15555   17.86975   -5.40585
      H1    12.86424   17.23226   -6.07734
       H     7.02621   17.86971   -7.66129
       O     7.21073   17.12926   -7.03978
      H1     7.12723   17.53519   -6.12393
       H    10.37644   18.19453   -6.25430
       O    10.14418   17.47338   -6.89478
      H1     9.14877   17.51193   -6.99662
       H    11.41225   11.75174    2.15418
       O    10.67523   12.01275    1.55547
      H1    10.50382   11.32634    0.91648
       H    14.14144   10.43516   -1.95056
       O    15.04170   10.20813   -1.71392
      H1    14.98593    9.27447   -1.40152
       H     7.39247   11.28790    1.57761
       O     6.59229   10.92153    1.96484
      H1     5.84671   11.11882    1.30234
       H     5.65851   15.28143    0.02879
       O     6.02681   14.49931   -0.38075
      H1     6.95751   14.68534   -0.16588
       H    14.23116   12.96692    0.12115
       O    14.90671   12.27926    0.31888
      H1    15.23229   11.76542   -0.43469
       H    10.63517   15.68275    2.22612
       O     9.65886   15.75770    2.15101
      H1     9.21031   14.92594    2.55467
       H    13.43049   12.92111    4.21073
       O    12.80884   12.40323    3.72721
      H1    12.64631   11.65885    4.35898
       H     9.96398    9.03153   -5.06410
       O    10.40595    9.68356   -5.69194
      H1    10.61009   10.36469   -5.05170
       H    14.89410   17.27934   -4.66854
       O    15.67683   17.09501   -4.17376
      H1    16.09612   16.35635   -4.60981
       H     8.70926   13.06390    3.57415
       O     8.44774   13.20571    2.61867
      H1     9.25473   12.83457    2.21506
       H    13.61014   14.97681   -6.94536
       O    12.70747   15.32258   -6.98963
      H1    12.15776   14.57125   -6.77351

