132
frame 10 | Written by MDAnalysis XYZWriter (release 2.4.3)
       H    -4.23207  -14.94664  -11.17136
       O    -4.86636  -15.12408  -11.83882
      H1    -5.67516  -14.76558  -11.40289
       H    -0.74874  -13.57671   -6.77058
       O    -1.53104  -14.10584   -6.87956
      H1    -2.09024  -14.05781   -6.09482
       H    -4.38089  -13.53614  -14.52236
       O    -4.27394  -13.14767  -13.61646
      H1    -4.38691  -13.82304  -12.94280
       H    -8.72829  -10.61937  -11.17018
       O    -8.29767  -10.50896  -12.05581
      H1    -7.41801  -10.15461  -11.73293
       H   -10.93599  -13.51801  -11.02976
       O   -10.63243  -13.95143  -10.19528
      H1   -10.61429  -14.85731  -10.43717
       H    -9.49413  -14.38164  -14.92478
       O    -9.56353  -13.60051  -14.29148
      H1    -8.88279  -13.77600  -13.63709
       H    -7.36733   -6.07869   -9.06706
       O    -7.90820   -6.89429   -9.04642
      H1    -8.26091   -7.05094   -9.95337
       H    -9.58839  -12.57896   -9.86592
       O    -8.98741  -11.88900   -9.48394
      H1    -9.27827  -11.81256   -8.55654
       H    -8.12117   -7.00255   -4.20378
       O    -7.28806   -6.55878   -4.43893
      H1    -7.38399   -6.21536   -5.35822
       H    -8.98626  -16.13202   -7.90165
       O    -8.29397  -15.45910   -7.99489
      H1    -8.55143  -15.01975   -7.23738
       H    -7.16159  -12.81353  -16.14352
       O    -6.84415  -12.14238  -15.49918
      H1    -7.07802  -12.41476  -14.62434
       H    -2.64512  -15.24564   -4.87721
       O    -2.58634  -14.32610   -4.50589
      H1    -3.48426  -13.96939   -4.66195
       H    -6.22440  -17.06612   -7.86919
       O    -6.60800  -17.93781   -7.94475
      H1    -7.55072  -17.84292   -8.11643
       H    -4.51620  -12.31965   -4.60992
       O    -5.18126  -13.00945   -4.44060
      H1    -5.66915  -13.22435   -5.26044
       H    -5.08054   -9.11506  -11.81404
       O    -5.77480   -9.50432  -11.26585
      H1    -5.54578   -9.10557  -10.39975
       H    -8.85042   -7.06230  -12.31073
       O    -9.24241   -7.15341  -11.45889
      H1    -9.86898   -6.44915  -11.25905
       H    -6.08958  -12.72451  -13.27043
       O    -6.94863  -12.70516  -12.92342
      H1    -7.25667  -11.87872  -12.61299
       H    -9.93214   -9.86443  -12.09629
       O   -10.74873   -9.41304  -11.80432
      H1   -10.29222   -8.56638  -11.73263
       H    -7.14118   -8.38601   -8.03201
       O    -7.26252   -8.97293   -7.31081
      H1    -6.47201   -8.83459   -6.77316
       H   -10.13796  -10.39773   -6.88833
       O    -9.80091  -11.29549   -6.65003
      H1   -10.55562  -11.86539   -6.51545
       H    -8.73993  -15.26368   -4.97043
       O    -8.54135  -14.37724   -5.47958
      H1    -9.22433  -13.84477   -5.05894
       H    -4.00955  -15.31758   -8.28036
       O    -4.48496  -15.68573   -7.51023
      H1    -5.06084  -14.99531   -7.30627
       H    -1.58992  -13.99783  -10.35770
       O    -0.77864  -13.81241  -10.96491
      H1    -0.28439  -13.11978  -10.46722
       H   -10.12876   -8.07688   -7.76894
       O    -9.81257   -8.37959   -6.93946
      H1    -8.90777   -8.55948   -7.04312
       H    -6.38799   -8.19551   -4.79357
       O    -5.88564   -8.98979   -4.94715
      H1    -6.42729   -9.71747   -4.75560
       H    -8.65888  -11.17710   -5.18237
       O    -8.21702  -10.69908   -4.51892
      H1    -8.04960  -11.27271   -3.77296
       H    -3.42708  -16.42380   -6.27618
       O    -2.84841  -16.62850   -5.49437
      H1    -2.03813  -17.01016   -5.81923
       H    -2.35083  -14.28168   -8.51115
       O    -2.76158  -14.43313   -9.35181
      H1    -3.28221  -13.56363   -9.53457
       H    -0.92730   -8.63067   -9.02821
       O    -0.81357   -9.33743   -8.42237
      H1    -1.35436   -9.18998   -7.60725
       H    -3.28153  -11.94263  -12.88879
       O    -2.79073  -11.40685  -12.23860
      H1    -2.29699  -12.04275  -11.65119
       H    -5.82654  -13.81348   -3.19921
       O    -5.86231  -14.47029   -2.48881
      H1    -4.89970  -14.53076   -2.17301
       H    -9.05162   -9.11025   -4.09963
       O    -9.34723   -8.33817   -3.56218
      H1   -10.15716   -7.97124   -3.99474
       H    -8.70523  -12.41072   -2.08951
       O    -7.74817  -12.20699   -2.32193
      H1    -7.42025  -13.06785   -2.68326
       H    -8.06244  -14.71145  -11.09747
       O    -7.58923  -15.52671  -10.75342
      H1    -7.71537  -15.47298   -9.79023
       H    -2.80447   -8.37550  -13.24193
       O    -3.56062   -8.24735  -12.62486
      H1    -4.21515   -7.81765  -13.23812
       H   -11.69995  -14.32370   -8.07033
       O   -11.69988  -14.39027   -7.16238
      H1   -11.43928  -15.24983   -6.99694
       H   -10.97941   -8.37927   -9.94471
       O   -11.54573   -8.41451   -9.16344
      H1   -11.93113   -9.31700   -9.21501
       H   -13.26216  -12.15064   -9.37137
       O   -12.76929  -11.48986   -8.89079
      H1   -13.38579  -11.16434   -8.21294
       H    -7.29434  -13.65227   -6.38377
       O    -6.36344  -13.44185   -6.69055
      H1    -6.46426  -12.80045   -7.34359
       H    -4.73017   -7.30348   -9.26377
       O    -4.85856   -8.20384   -8.94649
      H1    -3.94966   -8.53617   -8.90804
       H    -6.81662  -10.78649   -8.11164
       O    -6.53708  -11.54168   -8.64125
      H1    -7.34586  -11.93638   -9.03602
       H    -3.53779  -11.25672  -10.47681
       O    -3.90266  -11.74363   -9.74441
      H1    -4.77170  -11.36426   -9.46176
       H    -2.56244   -9.67631   -5.46016
       O    -1.97140   -9.03818   -5.86032
      H1    -2.45146   -8.22391   -5.99747
       H    -4.30291  -10.15872   -4.57367
       O    -3.52633  -10.70307   -4.47808
      H1    -3.11554  -10.37080   -3.63930

