132
frame 9 | Written by MDAnalysis XYZWriter (release 2.4.3)
       H    -1.56019    8.89037    7.80490
       O    -1.31905    9.89316    7.71861
      H1    -1.99309   10.28473    8.25845
       H     6.86616    9.74833   10.69552
       O     7.08604    8.78844   10.51427
      H1     6.91875    8.70120    9.55588
       H     1.20861    3.69412    5.01893
       O     1.08272    4.56459    5.31034
      H1     1.96196    4.92592    5.33967
       H     6.49430    3.64593    3.98130
       O     6.28213    2.89907    4.54392
      H1     7.04383    2.71155    5.11698
       H     1.85486    4.23120   10.17252
       O     2.28226    4.93005   10.69413
      H1     1.57364    5.15311   11.35747
       H    -0.99628    6.76205    5.11329
       O    -0.27149    7.02796    5.66053
      H1     0.23270    6.22925    5.71345
       H     2.17314    4.79078    1.72319
       O     2.55085    3.81094    1.73186
      H1     2.10955    3.34665    1.00064
       H     8.12616    8.82060    3.96581
       O     8.79948    8.27945    3.51072
      H1     8.28479    8.13375    2.72165
       H     3.25772    6.74654    6.75809
       O     3.47507    6.06639    6.12024
      H1     3.82863    5.33521    6.63037
       H     4.59644   -0.86775    5.62564
       O     3.83568   -0.24605    5.58784
      H1     4.02928    0.51464    6.23528
       H    -1.88825    5.32071    9.41315
       O    -2.31778    4.72284    8.75089
      H1    -3.17734    4.46862    9.16789
       H     5.42766    3.47760    5.87047
       O     4.97474    3.79839    6.68962
      H1     5.65938    4.35325    7.15034
       H     8.17639    7.27899    4.73320
       O     8.12606    6.50857    5.34676
      H1     9.03670    6.28473    5.64967
       H     0.90207    6.11407    1.12758
       O     1.32354    6.20868    2.02333
      H1     1.67152    7.09805    2.06455
       H     6.51676    3.17565    1.13710
       O     6.98920    3.35240    0.33059
      H1     6.51986    4.14196    0.02247
       H     2.66541    9.57071    5.72739
       O     3.40353    9.63261    6.36860
      H1     3.62689   10.55482    6.30671
       H     4.04307   12.45960    7.43642
       O     3.10599   12.33301    7.68227
      H1     3.16870   11.88682    8.55914
       H     8.57045    1.79614    7.10461
       O     8.41599    1.86150    6.17631
      H1     9.07935    1.25075    5.79757
       H     7.35683    5.66319    4.03650
       O     6.85540    5.33541    3.24212
      H1     7.43746    5.53901    2.50083
       H     7.04813    7.48610    6.49139
       O     6.59496    7.96467    7.21779
      H1     6.36249    8.82953    6.87082
       H     5.64396    8.12014    0.91855
       O     4.78754    7.97698    0.49416
      H1     4.15600    7.93379    1.21012
       H    -2.28274    4.80800    4.15999
       O    -2.49490    5.72178    4.44273
      H1    -3.28607    5.64424    5.00956
       H     7.52458    1.26996    2.19624
       O     6.53328    1.26260    2.25855
      H1     6.32131    1.62830    3.17372
       H     3.53513    8.28565    3.10384
       O     2.89372    8.36742    2.38896
      H1     2.75564    9.35208    2.21232
       H     6.22736    6.40554    8.00260
       O     6.14320    5.60930    8.53716
      H1     5.39729    5.75913    9.08292
       H    -2.19732    6.40074    7.91765
       O    -2.14973    7.28657    7.51835
      H1    -1.49863    7.11363    6.81324
       H    -0.07270    8.57498    2.95173
       O    -0.65000    9.04548    2.32834
      H1    -1.45575    8.51062    2.26821
       H     1.63052    8.69831    9.56403
       O     1.36639    8.94046   10.48001
      H1     1.08528    8.14889   10.94883
       H     6.30428   10.13196    3.67514
       O     6.62241    9.66893    4.49209
      H1     5.76133    9.22500    4.70251
       H     2.51693   11.62230    3.29546
       O     3.15708   11.28529    2.67117
      H1     2.72765   11.63957    1.84505
       H    -0.92066    3.50427    8.22351
       O    -0.13352    3.27206    7.66826
      H1    -0.03281    3.93218    7.01974
       H     7.69556   10.65552    7.70893
       O     6.85352   11.05070    7.74385
      H1     6.90320   11.73722    8.41118
       H     3.56407    8.65747   11.80676
       O     4.11603    9.41078   11.98872
      H1     4.99372    9.06551   12.35337
       H     1.67430    2.84168    8.33211
       O     2.25618    2.52804    9.01192
      H1     2.99464    2.12786    8.54027
       H     4.08338    4.81152    0.83136
       O     4.68622    5.10271    0.13530
      H1     4.75541    6.06846    0.32414
       H     3.03825    7.68516    8.91387
       O     2.40963    7.92394    8.22671
      H1     2.92612    8.61715    7.79960
       H     1.83200    8.70496    3.82429
       O     1.20252    9.02155    4.46611
      H1     0.89316    8.22936    4.90624
       H     3.38726    6.41624   10.74865
       O     4.04599    7.00309   10.30089
      H1     4.81165    7.00342   10.91872
       H    -0.67355    2.13403    6.20800
       O    -1.02212    1.65147    5.42297
      H1    -0.33137    1.76368    4.73266
       H     1.33233    2.84376    3.20372
       O     1.07061    2.17666    3.84759
      H1     1.63844    1.37506    3.52954
       H     4.99325    0.89946    8.33936
       O     4.45179    1.45263    7.76076
      H1     4.85479    2.25517    7.49033
       H     1.94031   11.41197   10.08726
       O     2.88426   11.38915   10.24072
      H1     3.02346   10.41849   10.38186
       H     4.36723    6.74714    4.80237
       O     4.88854    7.29848    4.15821
      H1     5.50175    6.68563    3.79048
       H     6.66504    4.21884    9.92148
       O     6.91239    3.53408   10.55863
      H1     7.11678    4.04659   11.32194

