132
frame 2 | Written by MDAnalysis XYZWriter (release 2.4.3)
       H    -3.06259    3.13900   -2.93885
       O    -3.70487    2.47524   -2.59544
      H1    -4.18993    2.81040   -1.80887
       H    -7.48463    2.75661   -4.86760
       O    -6.81856    2.85066   -4.12140
      H1    -7.13771    2.14510   -3.49546
       H    -0.73749   -2.05568   -2.93406
       O    -1.45538   -1.65801   -3.43694
      H1    -1.09561   -1.65975   -4.37575
       H    -3.81669    0.92050   -5.15154
       O    -4.73219    1.03504   -4.91676
      H1    -4.78019    1.74112   -4.29628
       H    -7.62278   -4.57221    6.39474
       O    -7.56203   -3.67772    6.01944
      H1    -7.13733   -3.74638    5.16467
       H   -10.09805   -1.67748    2.00871
       O    -9.15619   -1.67468    2.22477
      H1    -9.11551   -0.90890    2.84941
       H    -4.66265   -1.75136   -2.54721
       O    -4.01193   -2.20585   -1.97809
      H1    -3.22402   -2.18691   -2.52520
       H    -1.42677   -4.73403    1.45254
       O    -1.30183   -5.20238    0.55232
      H1    -1.07161   -4.45075   -0.08755
       H   -12.86895   -3.34572   -1.24861
       O   -12.07636   -2.77596   -1.49499
      H1   -11.74280   -2.49292   -0.62406
       H    -6.90859    5.47738    1.73659
       O    -6.77037    5.30730    0.77048
      H1    -7.61443    4.92455    0.43632
       H    -7.79976   -3.16030   -3.82897
       O    -7.22896   -2.61852   -4.41476
      H1    -6.75861   -3.26373   -4.92403
       H   -10.91841   -4.42139    2.95019
       O   -10.76125   -3.81645    3.67995
      H1   -10.11868   -3.14134    3.37728
       H   -11.10780    1.61583    3.01224
       O   -11.43613    2.13285    2.23246
      H1   -11.05104    1.66942    1.49249
       H    -3.80091    0.58990    3.23274
       O    -3.81397    1.43368    2.71011
      H1    -4.45527    1.37126    1.98057
       H   -11.18429    0.03250    4.69829
       O   -10.62734    0.81457    4.69418
      H1    -9.69947    0.52359    4.72502
       H    -8.42218   -6.18510   -0.99852
       O    -8.63802   -5.36144   -0.51768
      H1    -7.90776   -5.14728    0.10865
       H    -5.09223    2.01972    0.06625
       O    -5.58583    1.62766    0.75837
      H1    -5.46437    0.68235    0.46721
       H    -1.34214    0.15463   -1.01659
       O    -0.43846    0.14688   -0.74261
      H1     0.07970    0.55391   -1.45305
       H    -8.19728    2.56110    2.69121
       O    -7.87227    1.82918    2.12865
      H1    -7.14447    2.13207    1.52792
       H    -4.68114   -1.02163   -0.22060
       O    -5.42891   -1.15751    0.42775
      H1    -6.30729   -1.11288    0.00597
       H    -7.03691    0.17245   -2.66914
       O    -7.64780    0.90656   -2.35451
      H1    -8.00661    0.56762   -1.50004
       H   -11.18537    2.22347   -1.37485
       O   -12.11178    2.41029   -1.62142
      H1   -12.06730    2.67303   -2.60023
       H    -5.19981   -5.09280   -3.61134
       O    -5.28642   -4.80787   -2.68944
      H1    -4.75881   -4.00109   -2.64275
       H    -7.65620   -0.29411   -6.87324
       O    -8.37130   -0.91560   -6.74865
      H1    -8.04197   -1.43657   -6.01552
       H    -7.75469   -0.05006    5.26222
       O    -8.18804    0.09912    4.39810
      H1    -7.79697    0.79601    3.86889
       H   -11.94701   -3.26591    1.25372
       O   -11.67961   -2.33785    1.23724
      H1   -12.43082   -1.82962    1.61742
       H   -12.05427   -6.06820    1.28958
       O   -11.50284   -5.29165    1.38453
      H1   -10.79120   -5.37748    0.76555
       H    -5.48904   -0.03533   -3.97815
       O    -5.76488   -0.68231   -3.30845
      H1    -6.30799   -1.38381   -3.75317
       H    -8.12826   -1.81935   -0.78627
       O    -8.00144   -1.05231   -0.23834
      H1    -7.99030   -1.44499    0.65968
       H    -4.05598   -0.61919    5.45498
       O    -3.50637   -0.73001    4.67408
      H1    -2.88053   -1.45974    4.77311
       H    -6.19938   -4.33697    3.15195
       O    -5.79763   -3.97499    3.96812
      H1    -5.19243   -3.36835    3.49894
       H    -6.88321    5.27899   -2.44959
       O    -7.80714    4.91896   -2.50613
      H1    -7.72587    4.08205   -2.98519
       H    -3.19635   -5.57640    0.14389
       O    -4.13863   -5.80893   -0.02781
      H1    -4.27794   -5.57565   -0.92125
       H    -2.00364   -2.09327    1.75378
       O    -1.15028   -1.64420    1.56689
      H1    -1.31787   -1.33055    0.65454
       H    -0.75460    1.58855    0.66241
       O    -1.11675    2.12885    1.38089
      H1    -1.87665    1.55029    1.69321
       H    -4.97693    4.35876    0.27212
       O    -4.37816    4.00784   -0.41201
      H1    -3.48433    4.09229   -0.03571
       H    -9.86565   -3.18002   -1.77940
       O    -9.03027   -3.24967   -2.19195
      H1    -8.72853   -4.04592   -1.73614
       H    -4.74127    4.37846    3.89825
       O    -3.99813    3.81609    4.09369
      H1    -3.99163    3.05145    3.47727
       H    -4.19487   -1.54696    3.19992
       O    -4.02097   -2.22730    2.49999
      H1    -4.66065   -1.92968    1.81168
       H    -3.39764   -4.82929    3.16178
       O    -2.46769   -4.93912    3.13793
      H1    -2.27253   -5.91152    3.15068
       H    -3.76188   -0.21358   -1.76608
       O    -3.35653    0.25878   -1.04556
      H1    -3.15693    1.13336   -1.38456
       H    -9.84334    4.79760    0.59806
       O    -9.19686    4.21383    0.13046
      H1    -9.01602    4.58369   -0.73166
       H    -9.28346    0.62776    0.06343
       O    -9.88262    1.36808   -0.03334
      H1    -9.40350    2.13253    0.25856
       H    -6.75712   -5.97454    1.36610
       O    -6.55257   -5.02095    1.47981
      H1    -5.74316   -4.84111    1.03433

