132
frame 0 | Written by MDAnalysis XYZWriter (release 2.4.3)
       H     8.20204  -11.01260   10.80171
       O     8.76839  -11.67326   10.39092
      H1     8.32338  -12.47501   10.70115
       H    11.14061  -18.90546   11.12937
       O    11.14746  -19.77547   10.67250
      H1    11.97900  -19.92136   10.19615
       H     7.84228  -17.81469   11.93522
       O     7.43271  -18.42469   11.31652
      H1     7.69595  -19.30844   11.57462
       H     5.99258  -18.07019   17.81967
       O     6.88670  -18.42877   17.75433
      H1     7.37724  -17.73732   17.33984
       H    -0.40736  -18.33121   18.50798
       O     0.28844  -17.91043   19.01638
      H1     1.06576  -18.34314   18.54202
       H     8.79596  -14.68830   13.21702
       O     9.44172  -15.32698   13.62540
      H1     9.03815  -15.58625   14.47505
       H    13.88136  -17.37153   14.29724
       O    13.89706  -17.84454   15.14535
      H1    13.04511  -17.73639   15.54782
       H     6.39730  -10.41332   12.04477
       O     6.75261  -10.00145   11.21203
      H1     7.33371   -9.32780   11.60879
       H    12.25001  -13.94326   15.34204
       O    11.32085  -14.03798   15.69509
      H1    10.72259  -14.09668   14.93310
       H     4.88715  -14.62605   19.60188
       O     5.71228  -14.91483   19.13918
      H1     5.54942  -14.71218   18.19460
       H     4.55237  -14.18654   11.23734
       O     5.31617  -14.73835   11.49866
      H1     5.75434  -14.80846   10.61961
       H    10.29524  -16.54929   12.43570
       O    10.78405  -17.37490   12.19883
      H1    10.53520  -17.97594   12.94578
       H     3.41683  -20.19296    8.98378
       O     4.01831  -19.46238    9.24805
      H1     3.61175  -18.65766    8.97164
       H     9.98285  -12.39794   18.72363
       O    10.11044  -12.07851   17.81647
      H1    10.31612  -12.76917   17.18664
       H     7.32526  -17.12680    8.34727
       O     7.92409  -16.95258    9.06551
      H1     7.69418  -17.56015    9.77376
       H     3.27189  -17.43575    7.07798
       O     3.40431  -17.24695    8.01469
      H1     2.82311  -16.51223    8.28742
       H     6.88289  -12.15393   18.55172
       O     7.00657  -11.79279   17.68918
      H1     7.93109  -11.95772   17.56754
       H    10.98190  -12.00928   11.49373
       O    11.60750  -12.46575   12.09130
      H1    12.32128  -12.75207   11.48412
       H     7.90801  -16.76078   15.43343
       O     8.21040  -16.20751   16.18926
      H1     7.54429  -15.53448   16.31074
       H    10.75978  -17.53837    7.50470
       O     9.89021  -17.98908    7.62608
      H1     9.35932  -17.52224    8.28784
       H     7.28550  -12.63144   12.74099
       O     7.59861  -13.49890   12.39997
      H1     6.77809  -13.90912   12.23436
       H    10.98155  -17.09722   16.97813
       O    11.17857  -16.84800   16.05284
      H1    11.10346  -15.90333   16.05812
       H     2.25503  -18.54754   12.39586
       O     2.64667  -17.90478   11.87275
      H1     3.49831  -18.32730   11.71743
       H    11.40882  -17.51007   19.06768
       O    11.02232  -18.16022   18.55382
      H1    11.64894  -18.94362   18.55961
       H     4.61923  -16.82277   19.09220
       O     4.40230  -17.72180   18.82451
      H1     4.48586  -18.22616   19.67879
       H     9.31238  -19.47753   15.01207
       O     9.98636  -18.96088   14.57210
      H1    10.19278  -18.27569   15.17993
       H    -0.89585  -19.61041   11.74387
       O    -0.05876  -19.56272   11.32788
      H1     0.08224  -18.61275   11.26833
       H    12.38215  -16.69878   12.42739
       O    13.26698  -16.24794   12.61693
      H1    12.93806  -15.52118   13.17606
       H     1.33501  -15.16194   13.75339
       O     1.47126  -14.23391   13.49456
      H1     0.54459  -14.00822   13.19000
       H     2.50157  -17.23555   16.03182
       O     2.50754  -16.38086   15.55369
      H1     3.30154  -16.53321   14.96144
       H     1.98510  -15.15947   10.44572
       O     1.66437  -16.07753   10.25493
      H1     2.13336  -16.62711   10.89517
       H     3.27259  -13.93911   14.26871
       O     4.03961  -13.67419   14.82136
      H1     3.74424  -13.04464   15.47168
       H     6.24591  -18.42222    6.88823
       O     6.40008  -17.45893    6.92151
      H1     7.08285  -17.41185    6.25478
       H     9.69376   -9.74992   15.13015
       O     9.41149  -10.38515   14.48287
      H1    10.12098  -11.00288   14.34381
       H     6.42144  -13.32770   16.84399
       O     6.12733  -14.23135   16.55398
      H1     5.46141  -14.05079   15.79482
       H     7.63630  -10.95423   14.16678
       O     6.79351  -11.09430   13.70684
      H1     6.12550  -11.03808   14.43875
       H     6.56177  -14.28266    8.39698
       O     6.87555  -14.45387    9.28917
      H1     7.47199  -15.18853    9.03949
       H     6.60975  -18.62868   14.38167
       O     6.94934  -17.72619   14.20269
      H1     6.13292  -17.23458   13.92980
       H     3.07116  -18.22906   18.04157
       O     2.36080  -18.69495   17.47830
      H1     2.60935  -19.63395   17.51587
       H    -0.10502  -19.20310   14.99582
       O    -0.94920  -19.25360   15.43289
      H1    -1.22725  -18.29909   15.48397
       H     1.49379  -13.24071    9.92951
       O     2.38592  -13.52154   10.23204
      H1     2.86555  -13.45097    9.40352
       H     5.64860  -19.23583   11.67164
       O     4.75050  -19.59376   11.84223
      H1     4.39773  -19.70761   10.92967
       H     4.72744  -15.61551   13.18838
       O     4.50147  -16.45253   13.64684
      H1     3.97410  -16.99187   13.06316
       H     2.40768  -14.56377   16.59085
       O     1.74991  -14.02899   17.12160
      H1     1.66288  -13.32091   16.49227

