132
frame 1 | Written by MDAnalysis XYZWriter (release 2.4.3)
       H   -15.05140   18.91309    1.26003
       O   -15.02019   19.20359    0.35253
      H1   -14.38555   19.91523    0.18132
       H   -11.15111   17.69854   -1.03001
       O   -11.57412   17.57371   -0.18295
      H1   -10.94195   17.12048    0.41781
       H    -4.81577   18.85799    5.48544
       O    -5.73192   18.79198    5.14320
      H1    -5.62206   18.59068    4.18084
       H    -7.58005   16.25908    5.42282
       O    -8.44545   16.45124    5.10978
      H1    -8.56603   15.80979    4.41756
       H   -17.09674   17.10249    4.80660
       O   -17.63226   17.69829    5.35616
      H1   -17.11324   17.55007    6.18394
       H   -17.67373   18.57359    7.82665
       O   -16.91535   17.98322    7.95934
      H1   -17.18468   17.19739    8.41897
       H   -13.30026   16.58736   -0.00549
       O   -14.08335   16.04379   -0.06639
      H1   -14.50049   16.56712   -0.76010
       H   -13.40111   16.46950    6.55795
       O   -12.53785   16.81688    6.22303
      H1   -12.02481   16.01493    6.24754
       H   -15.44866   19.24761    3.81533
       O   -15.96009   18.91819    3.03902
      H1   -16.21691   18.02054    3.24282
       H   -11.76218   18.95861    0.97678
       O   -11.93718   19.74336    1.47590
      H1   -11.65117   19.68874    2.38655
       H   -13.57519   17.41266   -5.48566
       O   -13.41240   17.70415   -4.55941
      H1   -13.02632   16.94968   -4.12541
       H   -15.37687   18.03738   -1.13319
       O   -15.94960   17.30564   -1.33286
      H1   -16.02143   17.21839   -2.28749
       H   -17.03952   13.10162    2.84452
       O   -17.66186   13.55879    3.46436
      H1   -17.21050   14.41222    3.56535
       H   -15.51848   15.05099    0.50970
       O   -16.43324   14.82015    0.48013
      H1   -16.87172   15.47744   -0.13950
       H    -8.27716   13.50050    2.30875
       O    -7.42588   13.38732    1.88194
      H1    -7.69088   13.36852    1.00682
       H   -18.98068   17.77034    0.31022
       O   -18.65288   17.85888   -0.58406
      H1   -17.70643   17.72325   -0.59780
       H   -13.52522   12.17965    0.05161
       O   -13.64301   11.65494    0.84289
      H1   -13.90163   10.76961    0.56900
       H   -15.18662   14.64359   -3.28211
       O   -14.51227   14.00105   -3.47480
      H1   -14.17639   13.79855   -2.60484
       H   -13.54808   18.52072    5.43919
       O   -13.91405   19.38557    5.23291
      H1   -13.27913   19.92871    4.82077
       H   -14.35289   15.04264    7.83312
       O   -14.73913   15.40906    7.01924
      H1   -14.86477   14.63960    6.43178
       H    -9.58117   18.20965    4.32222
       O    -9.98087   19.02213    3.94024
      H1   -10.25399   19.49863    4.72245
       H    -9.33603   17.70789   -5.68985
       O    -9.54064   16.89457   -5.28647
      H1    -8.79619   16.29205   -5.42003
       H    -8.41327   17.59489   -2.15759
       O    -7.87924   16.78955   -2.05454
      H1    -8.38544   16.07166   -2.41029
       H   -10.42174   12.98815   -0.95854
       O   -10.45765   13.94870   -1.07494
      H1   -10.02568   14.12312   -1.93689
       H   -11.89397   15.36003   -4.85280
       O   -12.04260   15.41628   -3.88793
      H1   -12.82106   14.87766   -3.85556
       H   -10.61037   17.42206   -3.45056
       O   -10.55585   17.87937   -2.62813
      H1    -9.99967   18.62810   -2.91328
       H    -5.89991   14.69233    2.22940
       O    -4.98899   14.99931    1.97847
      H1    -5.10098   15.94089    1.69763
       H   -10.29903   15.89663    7.70874
       O   -10.05086   15.36786    6.93902
      H1    -9.50892   15.94135    6.37369
       H   -17.87733   16.87619    2.59860
       O   -17.06688   16.43075    2.81242
      H1   -16.77505   16.06353    1.93689
       H   -10.12309   13.92641    3.44190
       O    -9.36277   14.57800    3.40209
      H1    -9.62979   15.05520    2.59621
       H   -16.11492   15.89835   -4.73672
       O   -16.45581   16.14357   -3.88532
      H1   -17.34443   16.40941   -4.01763
       H   -11.29569   11.98223    3.24168
       O   -11.29449   12.51813    4.04397
      H1   -10.78697   11.96553    4.71302
       H   -11.34309   18.25510    6.86081
       O   -10.84257   19.09221    6.92164
      H1   -10.88259   19.58225    7.76796
       H   -16.47267   18.32369   -4.61762
       O   -15.92992   19.06045   -4.20444
      H1   -15.03845   18.79095   -4.48123
       H    -6.57973   17.78917    1.78703
       O    -5.73903   17.96421    2.35060
      H1    -5.35792   18.71773    1.82949
       H    -4.66136   17.85298   -2.89042
       O    -5.53837   17.98122   -3.28163
      H1    -6.18123   17.34991   -2.89259
       H   -12.21612   13.89430   -1.06848
       O   -13.13433   13.59558   -1.15669
      H1   -13.56446   14.40357   -0.84815
       H   -17.50980   19.39956   -2.99233
       O   -18.43960   19.66365   -2.79661
      H1   -18.64299   19.15558   -1.98551
       H    -7.78104   17.77227   -0.03936
       O    -7.97857   17.85827    0.90387
      H1    -8.48106   18.69914    0.97959
       H    -5.74464   17.03530    5.72303
       O    -5.64510   16.09277    6.00867
      H1    -5.85262   16.09102    6.94398
       H   -18.77561   16.10710   -0.86360
       O   -18.65527   15.26934   -1.38881
      H1   -18.71416   14.62344   -0.68664
       H    -9.90955   14.79545   -3.79249
       O    -9.02117   14.70340   -3.36548
      H1    -8.69444   13.83444   -3.65086
       H   -10.01020   15.40100    0.24857
       O    -9.92562   15.95055    1.00703
      H1    -9.18349   16.51206    0.78085
       H   -12.18223   13.41956    8.12955
       O   -11.62568   13.13416    7.38240
      H1   -11.10465   13.89339    7.16182

