132
frame 10 | Written by MDAnalysis XYZWriter (release 2.4.3)
       H    -1.18057   -7.89829    0.17392
       O    -1.65159   -8.72883    0.50016
      H1    -2.01853   -8.50498    1.37355
       H    -3.79090   -7.25128   -0.60881
       O    -4.22787   -8.07008   -0.74990
      H1    -3.46057   -8.63640   -0.73562
       H    -1.83038    2.17601    1.52820
       O    -1.76452    3.08492    1.15270
      H1    -1.88245    3.02852    0.22213
       H    -0.66236   -1.95800   -3.39084
       O    -0.69356   -1.97694   -2.41810
      H1    -0.01059   -1.47058   -1.94379
       H    -2.02844   -5.52266   -3.04229
       O    -2.02911   -5.65686   -3.99441
      H1    -1.80894   -4.74694   -4.28794
       H     1.99934    4.43961    1.31099
       O     2.44311    3.67344    1.62096
      H1     2.11730    3.00848    1.03400
       H    -3.93664   -2.00142   -1.99505
       O    -3.39581   -2.42535   -2.63609
      H1    -2.49255   -1.98119   -2.59738
       H    -6.10582   -1.13956    6.29765
       O    -5.28366   -1.11593    5.74894
      H1    -4.65152   -0.71455    6.31508
       H     2.75683   -5.30442    3.02990
       O     2.63965   -6.23578    2.84300
      H1     3.23891   -6.83365    3.37858
       H    -0.00145   -5.21864    1.29496
       O     0.32986   -4.53409    0.65014
      H1     1.24757   -4.37741    0.89304
       H     1.51246    0.82921    0.02469
       O     2.01792    1.67485   -0.00022
      H1     1.66904    2.24625   -0.68820
       H    -0.33118   -2.44791    2.89984
       O     0.39594   -2.86730    3.49916
      H1     0.87426   -2.08059    3.72520
       H     1.03671   -3.15061   -2.63024
       O     1.94344   -3.40775   -2.82934
      H1     2.28965   -3.98389   -2.15015
       H    -2.37366    2.59756    4.75124
       O    -3.21291    3.03036    5.01376
      H1    -3.75978    2.68124    4.30777
       H     3.51312   -2.90716    1.47440
       O     3.02060   -3.27167    2.21808
      H1     3.63424   -3.33731    3.00781
       H     3.02010   -0.42648   -3.36068
       O     2.43056   -0.04042   -4.03355
      H1     1.88384   -0.79426   -4.41276
       H     0.34027   -3.71896    7.03244
       O    -0.45027   -3.18491    7.02326
      H1    -0.25873   -2.24763    6.81124
       H    -5.43136   -7.48749    4.85771
       O    -4.59157   -7.02618    5.05968
      H1    -4.63940   -6.20437    4.56303
       H    -5.27989    2.11893    2.19323
       O    -5.40841    1.92914    3.11207
      H1    -6.22763    1.33733    3.14124
       H    -0.80854   -2.72186   -5.75099
       O    -1.57056   -2.86910   -5.19244
      H1    -2.33261   -2.59902   -5.67454
       H    -5.03464   -2.02786    4.00766
       O    -5.41444   -2.58106    3.29307
      H1    -6.28530   -2.21525    3.08194
       H    -1.94517    1.38720   -3.26377
       O    -2.46338    1.66594   -4.02768
      H1    -3.38255    1.54595   -3.92600
       H    -2.83443    1.19522   -1.42903
       O    -1.88170    1.39702   -1.36654
      H1    -1.89527    2.35186   -1.52996
       H     3.42821   -0.75819    4.24055
       O     2.63117   -0.68479    3.71332
      H1     2.65059   -1.46406    3.09024
       H     0.63537   -6.27659   -0.83338
       O     0.38895   -7.13959   -1.09338
      H1     1.04743   -7.75899   -0.92648
       H    -5.36402   -0.28329   -1.19387
       O    -5.51235   -1.18684   -0.99229
      H1    -6.50023   -1.32736   -1.01991
       H     1.16503   -0.70398    6.56082
       O     0.31941   -0.74300    6.12900
      H1     0.19281    0.09660    5.72291
       H    -3.52899   -5.13776   -0.57684
       O    -4.09953   -5.29512    0.22700
      H1    -4.12298   -4.37447    0.51833
       H    -2.42178   -2.60847    6.47842
       O    -3.11028   -2.75470    5.89348
      H1    -3.78668   -2.07691    5.91307
       H    -0.84049   -3.95270    4.54018
       O    -1.36982   -4.72956    4.70445
      H1    -2.19036   -4.42989    5.04901
       H    -1.96348   -7.21657    3.18360
       O    -2.58512   -7.87021    3.43320
      H1    -3.39045   -7.58547    3.82661
       H    -1.09367   -4.76647   -1.07125
       O    -2.02189   -4.69867   -1.41806
      H1    -2.05319   -3.81126   -1.81444
       H     4.25162   -1.18036    0.63201
       O     4.32158   -2.10090    0.34993
      H1     4.48750   -2.02673   -0.57404
       H    -2.10252   -2.68068    0.78567
       O    -1.21684   -2.42446    1.07506
      H1    -0.73589   -3.27785    1.19590
       H    -0.73428   -0.20226    1.74866
       O    -1.42639    0.29749    2.29336
      H1    -1.15854    0.44717    3.20923
       H    -0.31616    1.65758    5.81787
       O    -0.25913    1.53449    4.87688
      H1     0.68619    1.81136    4.69300
       H     2.27789    2.87216    3.13940
       O     2.28736    2.29901    3.90110
      H1     2.76277    1.46166    3.64298
       H    -3.98220   -2.27644    1.57385
       O    -4.01872   -2.50212    0.66693
      H1    -4.74026   -2.12561    0.18289
       H     5.10241    1.11665    1.60288
       O     4.80441    0.93824    0.72866
      H1     3.94138    1.41786    0.66010
       H    -0.43799   -5.76160    3.35943
       O    -0.25211   -6.32371    2.58090
      H1     0.70175   -6.43346    2.53813
       H    -0.45447   -1.12460    0.26525
       O     0.07856   -0.46021   -0.19574
      H1    -0.54025    0.11453   -0.58759
       H    -4.99159    1.54409   -2.22308
       O    -4.64248    1.20955   -1.43606
      H1    -4.73947    1.91904   -0.75713
       H    -6.01954   -4.08561   -3.44179
       O    -5.32712   -3.90390   -4.09238
      H1    -4.60637   -3.47111   -3.57974
       H    -4.47879   -5.41665    2.26044
       O    -4.74706   -5.12144    3.15039
      H1    -5.04597   -4.23971    3.00327

