132
frame 5 | Written by MDAnalysis XYZWriter (release 2.4.3)
       H   -19.14563    1.19182   -4.13776
       O   -18.31628    1.65373   -4.24226
      H1   -17.72422    0.99088   -3.92811
       H   -11.40687    7.04751   -5.20397
       O   -10.38917    6.88595   -5.33872
      H1    -9.83587    6.91913   -4.50896
       H   -19.75381    0.71975   -9.33734
       O   -19.15761    1.28699   -8.85483
      H1   -18.70802    0.67686   -8.25428
       H   -13.98691    2.21059   -6.55262
       O   -13.32633    1.53278   -6.39722
      H1   -12.54872    1.80479   -6.91636
       H   -10.48487    4.66735   -7.87767
       O   -10.15196    5.18329   -8.63005
      H1    -9.83009    4.50133   -9.21518
       H   -11.73925    3.85116   -5.69181
       O   -11.01330    4.29629   -6.13189
      H1   -10.91789    5.17263   -5.72200
       H   -12.85569    3.59415   -0.93090
       O   -12.58334    4.10938   -1.69502
      H1   -12.99538    4.96511   -1.52790
       H   -17.32396    4.03076   -9.83478
       O   -17.38146    3.23516  -10.32731
      H1   -17.81285    2.69387   -9.66761
       H   -12.93861    7.47324   -1.97588
       O   -12.54806    6.65551   -2.42170
      H1   -11.61322    6.71467   -2.08505
       H    -8.17403    1.32722   -5.75319
       O    -8.56227    1.71497   -4.92917
      H1    -9.51439    1.82102   -5.05712
       H   -15.04564   -1.17938   -8.78203
       O   -14.90887   -2.02075   -9.28647
      H1   -14.77277   -1.71175  -10.18807
       H   -15.71915   -2.58483   -5.00539
       O   -15.82048   -1.71184   -5.34290
      H1   -14.96081   -1.48508   -5.73447
       H   -15.10094    1.18128  -11.31863
       O   -15.24937    1.86949  -10.63632
      H1   -16.09830    2.37114  -10.69109
       H   -12.02117    2.25770  -10.77623
       O   -12.06610    1.30845  -10.51071
      H1   -11.21278    0.92330  -10.79144
       H   -12.61842    5.16783  -10.59727
       O   -12.61692    4.31829  -11.13850
      H1   -13.32415    4.43511  -11.77283
       H   -15.48389    3.30462   -3.07512
       O   -14.63771    2.92759   -3.10137
      H1   -14.07630    3.52238   -2.57121
       H   -17.01110    8.51270   -4.23552
       O   -16.84856    9.12036   -3.48550
      H1   -17.60280    8.88871   -2.88622
       H   -18.86330   -1.87859   -6.38732
       O   -18.54351   -2.00553   -5.47221
      H1   -17.60268   -1.83319   -5.65729
       H   -14.90756    6.81871   -7.43924
       O   -15.71356    7.41094   -7.42184
      H1   -16.24723    6.90268   -8.08538
       H   -13.03870    6.52310   -6.57417
       O   -13.30677    6.22877   -7.46203
      H1   -12.62249    6.75975   -7.93936
       H   -14.22341   10.34182   -2.39200
       O   -14.26001    9.45652   -2.71357
      H1   -15.21288    9.38230   -3.05051
       H   -15.47868    3.82475   -5.76332
       O   -14.89442    3.70562   -6.52948
      H1   -14.35308    4.46023   -6.69477
       H   -12.93153   -1.53740   -5.30840
       O   -13.11597   -1.29279   -6.22236
      H1   -13.10373   -0.31566   -6.13670
       H   -12.02252    7.44488  -10.16051
       O   -11.36067    6.75238  -10.43223
      H1   -11.08784    6.36338   -9.58179
       H   -18.32975    7.36308   -5.75525
       O   -17.47775    7.19865   -5.28394
      H1   -16.82304    7.25004   -5.97332
       H   -17.23397    1.22641   -5.68176
       O   -17.35589    0.71227   -6.55252
      H1   -16.55766    0.82468   -7.05153
       H   -11.13807    0.39392   -1.64247
       O   -11.79894    0.37427   -2.35475
      H1   -11.71230    1.18520   -2.86564
       H   -19.76211    5.38679   -2.25120
       O   -18.82096    5.19274   -2.01114
      H1   -18.43753    4.80733   -2.76203
       H   -15.05716    0.97597   -9.26817
       O   -15.17239    0.52037   -8.38577
      H1   -14.25431    0.53321   -8.00712
       H   -16.87070    6.27223  -10.30374
       O   -17.15804    6.12588   -9.37776
      H1   -18.08723    6.17311   -9.35251
       H   -15.35098    4.75748  -12.38626
       O   -14.85788    3.95464  -12.68568
      H1   -15.01284    3.32470  -12.00642
       H   -10.00733   -0.66441   -6.33488
       O   -10.53254   -0.64241   -7.10184
      H1   -11.43491   -0.89866   -6.88727
       H   -14.19219    1.50475   -0.32629
       O   -13.93294    2.17175    0.35058
      H1   -13.13857    1.79324    0.72314
       H   -12.70528    2.46108   -4.47372
       O   -11.88075    2.53842   -4.05765
      H1   -12.05625    3.29434   -3.41937
       H   -13.54382    0.17711   -1.63023
       O   -14.46064   -0.01289   -1.38732
      H1   -14.96228    0.35526   -2.18738
       H   -17.20009    5.46865   -4.56457
       O   -17.14903    4.58810   -4.18958
      H1   -17.80324    3.99214   -4.59735
       H   -12.49630   -1.05898   -3.10019
       O   -12.93096   -1.77138   -3.59409
      H1   -12.71507   -2.53211   -3.13195
       H   -16.86919    0.62698    0.30968
       O   -16.74327    1.58174    0.19564
      H1   -15.83226    1.86927    0.24223
       H   -15.48114    1.28290   -3.58707
       O   -16.02099    0.48889   -3.53445
      H1   -15.72859   -0.06063   -4.31364
       H   -19.59124    8.75510   -7.46487
       O   -19.34511    7.83066   -7.29559
      H1   -19.60747    7.46977   -8.13952
       H   -11.71041    1.93533   -8.62997
       O   -10.97559    2.02084   -7.99405
      H1   -10.62951    1.10926   -7.83945
       H   -16.94446    4.87750    0.92164
       O   -17.12143    5.69007    0.41755
      H1   -17.68563    5.46253   -0.35677
       H   -13.17335    8.21701   -5.11022
       O   -13.15891    7.27487   -4.97367
      H1   -13.01190    7.14335   -3.98831
       H   -15.03505    9.30343   -7.50830
       O   -14.78554   10.25914   -7.55258
      H1   -15.50030   10.66138   -8.02855

