132
frame 7 | Written by MDAnalysis XYZWriter (release 2.4.3)
       H   -18.03993   -0.46606   -9.42670
       O   -17.26307    0.00968   -9.58654
      H1   -17.32211    0.82654   -9.09880
       H   -11.08577   -0.51897  -10.75667
       O   -10.64999    0.30562  -10.70609
      H1   -10.60964    0.60394  -11.61969
       H   -18.75929   -3.27887  -12.24276
       O   -18.71342   -3.10741  -13.21027
      H1   -19.02854   -3.85298  -13.73015
       H   -17.93042    0.19683  -13.92765
       O   -17.30709    0.49090  -13.21054
      H1   -16.51345    0.66729  -13.76405
       H   -16.00407   -0.56290  -11.67278
       O   -15.21451   -0.98494  -11.35708
      H1   -15.04455   -1.63283  -12.08041
       H   -17.23185    4.25241  -10.01826
       O   -17.16601    3.31148  -10.31282
      H1   -18.00190    2.92988  -10.01243
       H   -13.37979   -0.08346  -16.02306
       O   -14.30337   -0.33037  -16.22766
      H1   -14.76426    0.47847  -15.95383
       H   -16.04639   -5.84453  -14.86169
       O   -16.61472   -6.63338  -14.88544
      H1   -17.35669   -6.31756  -14.34861
       H   -16.97172   -2.89036  -13.50191
       O   -16.01040   -2.83166  -13.61233
      H1   -15.73461   -3.78972  -13.48196
       H   -11.93256   -4.61248  -11.62988
       O   -12.43789   -4.87009  -10.82805
      H1   -12.76168   -4.03726  -10.49025
       H   -17.80695    6.57306  -17.04611
       O   -17.33554    5.80394  -17.36844
      H1   -16.46133    5.89588  -17.02115
       H   -18.99555   -0.03101  -15.91031
       O   -19.09617   -0.66459  -15.23239
      H1   -18.53102   -1.43800  -15.54625
       H   -19.63576   -4.28874  -10.29041
       O   -18.86589   -3.74790  -10.29670
      H1   -18.13109   -4.30672  -10.02812
       H   -15.10950   -1.49813   -8.21677
       O   -15.43414   -2.14230   -8.88803
      H1   -15.62601   -1.57765   -9.62681
       H   -18.53351    2.00545  -17.23304
       O   -18.77753    1.15389  -17.57053
      H1   -18.32883    0.97775  -18.37724
       H   -14.95083    0.88529  -10.97512
       O   -14.86213    1.84399  -11.04383
      H1   -15.53859    2.41517  -10.55882
       H   -15.39930   -5.04789   -9.48615
       O   -16.25921   -4.71134   -9.20082
      H1   -16.18856   -3.72375   -9.15661
       H   -13.32000    1.61972  -10.19812
       O   -12.62375    1.90559   -9.53174
      H1   -11.79987    1.44865   -9.74540
       H   -13.28805   -2.76888  -13.97754
       O   -12.41729   -2.36251  -13.89648
      H1   -12.49042   -1.40455  -13.96625
       H   -12.33976    5.13832  -11.19736
       O   -12.09457    4.56346  -11.92119
      H1   -12.95446    4.28160  -12.31828
       H   -16.50199    6.32987  -12.95462
       O   -15.94836    6.05318  -12.17769
      H1   -15.11457    6.62591  -12.29840
       H   -16.04628   -0.63329  -18.98908
       O   -15.26207   -1.08840  -18.67710
      H1   -15.08362   -0.90335  -17.70827
       H   -13.85840    3.24883   -8.83875
       O   -14.29768    3.60814   -8.02643
      H1   -13.87507    4.47478   -7.92450
       H   -13.60635    1.73162  -18.98576
       O   -13.41189    0.86699  -19.27741
      H1   -13.94514    0.27588  -18.69658
       H   -11.45627   -3.64596  -13.25255
       O   -10.80715   -4.31689  -13.08634
      H1   -11.04616   -5.08048  -13.61515
       H   -15.55676   -3.12458  -17.77466
       O   -15.13441   -3.99000  -18.04481
      H1   -14.89305   -3.75082  -18.90387
       H   -19.25098   -7.14151  -13.35141
       O   -18.54945   -6.82564  -12.82219
      H1   -18.71622   -7.34178  -12.00305
       H   -16.31024    2.41141   -6.70696
       O   -16.67387    1.64091   -7.20753
      H1   -15.86696    1.20390   -7.56184
       H   -17.61421    3.41738  -12.19295
       O   -17.94570    3.16333  -13.08447
      H1   -17.57141    2.19481  -13.08975
       H   -13.47803    0.71009   -8.48039
       O   -13.91917    0.11625   -7.89364
      H1   -13.60740    0.47358   -7.05559
       H   -17.16801    6.20332  -11.00078
       O   -17.45542    6.27562  -10.02810
      H1   -18.43873    6.12298   -9.96756
       H   -14.82747    3.42647  -19.16578
       O   -13.96978    3.36791  -18.88546
      H1   -13.43950    3.99018  -19.41980
       H   -15.43893    4.40950  -12.65483
       O   -14.69897    3.84643  -12.89269
      H1   -14.83986    2.96824  -12.45240
       H   -17.48343   -3.06881  -16.99650
       O   -17.31774   -2.28321  -16.47375
      H1   -16.58338   -2.44711  -15.80842
       H   -12.22760   -2.22661   -8.57045
       O   -12.49575   -2.15981   -9.51719
      H1   -13.35688   -1.68005   -9.34677
       H   -19.01326   -3.99889  -17.51454
       O   -18.19534   -4.37481  -17.92114
      H1   -18.25229   -5.37105  -17.88071
       H   -13.55998   -4.14826  -17.11386
       O   -12.65554   -3.79637  -16.97305
      H1   -12.34643   -4.28580  -16.23880
       H   -11.56220   -1.23032  -17.75965
       O   -11.54242   -1.55672  -16.85089
      H1   -12.16655   -2.28329  -16.87181
       H   -14.21833    4.84109  -17.53635
       O   -14.32290    5.77872  -17.24724
      H1   -13.78612    5.99675  -16.45508
       H   -18.48217    3.36930  -15.47767
       O   -17.87322    3.30720  -16.27025
      H1   -17.67659    4.14374  -16.71153
       H   -11.32064   -0.48226  -15.55926
       O   -11.41447    0.34327  -15.05929
      H1   -10.77732    0.17950  -14.33873
       H   -16.41599    2.22218  -15.87469
       O   -15.72017    1.88631  -15.28194
      H1   -15.54657    2.52594  -14.60759
       H   -18.75914    6.86796  -13.37054
       O   -18.13094    7.37892  -13.91222
      H1   -18.11776    8.26451  -13.57576
       H   -13.79975   -5.84905  -13.57979
       O   -14.59922   -5.36055  -13.43564
      H1   -14.72884   -5.52706  -12.49052

