132
frame 2 | Written by MDAnalysis XYZWriter (release 2.4.3)
       H    -7.68116    8.20047  -17.92304
       O    -8.66002    8.43468  -17.81861
      H1    -9.07162    8.01400  -17.03179
       H    -7.07264    4.50861  -18.50858
       O    -6.31353    4.49940  -17.92965
      H1    -5.56764    4.09701  -18.38570
       H    -5.58477   10.01715  -13.55861
       O    -5.53416   10.65988  -12.88387
      H1    -6.24669   10.53914  -12.27731
       H    -5.91793   14.02785  -15.31567
       O    -5.33893   13.93044  -16.04717
      H1    -5.15575   14.87334  -16.30560
       H   -11.83079    7.90742  -18.51433
       O   -11.08123    7.75508  -19.12104
      H1   -10.31115    7.83122  -18.53321
       H    -0.42002    5.59976  -13.82831
       O    -0.76660    4.75820  -14.14902
      H1    -1.09856    4.22568  -13.42415
       H    -4.23168    6.77227  -11.26434
       O    -4.79357    6.06117  -11.64589
      H1    -4.89501    6.15697  -12.59410
       H   -11.53713    6.01250  -19.07919
       O   -11.38412    5.08378  -19.23632
      H1   -11.81344    4.62918  -18.48586
       H    -7.78562   11.55144  -16.50315
       O    -8.22480   10.78928  -16.06576
      H1    -8.53614   10.28919  -16.78656
       H    -6.01058    6.59688  -17.57363
       O    -6.09256    7.52982  -17.68061
      H1    -5.69678    7.93274  -16.90823
       H    -6.33248    4.93629  -15.24465
       O    -5.81142    5.62775  -14.84931
      H1    -4.86120    5.45334  -15.00767
       H    -0.86238    6.97323  -17.45711
       O    -0.98522    7.08774  -16.51689
      H1    -1.42373    7.93021  -16.31383
       H     0.63340    9.16511  -18.76140
       O     0.10435    9.71472  -19.33702
      H1     0.60468    9.89925  -20.12619
       H   -10.98054    9.62204  -12.99979
       O   -11.21089    9.30364  -12.14551
      H1   -11.40128   10.12000  -11.61098
       H     0.39436   10.67190  -15.73715
       O    -0.42766   10.39531  -15.24640
      H1    -1.12604   10.37734  -15.88562
       H   -11.51193    6.26288  -13.24922
       O   -10.87468    5.67293  -12.82808
      H1   -10.19671    6.17541  -12.34982
       H    -3.02770   12.61469  -19.39075
       O    -2.24097   12.04169  -19.42625
      H1    -2.54333   11.16313  -19.43365
       H    -5.65712    2.08646  -19.32387
       O    -4.77373    2.26368  -19.00019
      H1    -4.85558    2.30198  -18.00442
       H    -7.23199    6.86632  -13.96140
       O    -7.98691    7.55547  -13.93160
      H1    -8.38085    7.43183  -13.05955
       H    -4.57741    8.54768  -14.75053
       O    -4.96742    9.09946  -15.44784
      H1    -5.86443    8.73725  -15.49213
       H   -10.64148   11.17659  -16.58253
       O   -11.24199   10.52837  -17.03837
      H1   -10.88188    9.60738  -17.02911
       H    -3.79554    5.22904  -19.33112
       O    -3.49368    4.53068  -18.81181
      H1    -3.94413    3.71235  -19.14552
       H    -1.99467   12.51771  -17.65279
       O    -1.58924   12.86174  -16.84205
      H1    -2.03225   13.75569  -16.70117
       H    -9.91698    4.57188  -14.57074
       O    -9.81903    3.95621  -15.30937
      H1    -9.73109    3.05537  -14.84855
       H     0.67154    7.97086  -16.64084
       O     1.46857    8.18105  -17.14349
      H1     1.97462    8.77106  -16.59269
       H    -7.63293   13.15000  -18.22515
       O    -6.84762   12.60358  -17.91376
      H1    -6.34835   13.09960  -17.21477
       H    -5.97126    0.26379  -16.73655
       O    -6.65475    0.20729  -16.07570
      H1    -6.76062    1.09189  -15.70184
       H    -8.65218    5.33194  -19.81275
       O    -8.53223    4.46354  -19.52711
      H1    -9.28371    4.25256  -18.93581
       H    -2.40413    6.04110  -16.08294
       O    -2.97322    5.37577  -15.63802
      H1    -2.35398    4.93191  -15.00922
       H    -6.99213   12.50863  -13.85525
       O    -7.48929   13.33311  -14.01725
      H1    -7.06661   14.04839  -13.58068
       H    -6.98903    3.54187  -16.51780
       O    -7.23002    3.51663  -15.58733
      H1    -8.22732    3.63080  -15.53140
       H    -9.55289    7.79881  -14.86470
       O   -10.10934    7.95684  -15.67244
      H1   -10.92747    7.53483  -15.30051
       H    -2.99838    2.05885  -16.07935
       O    -3.80579    2.54444  -16.43567
      H1    -3.54810    3.47433  -16.44754
       H    -1.61393    9.04498  -19.28891
       O    -2.49487    9.31182  -18.92493
      H1    -3.04448    8.65935  -19.38522
       H    -2.20837    6.20775  -18.88675
       O    -1.31027    6.44414  -19.18880
      H1    -0.77731    5.60664  -19.06878
       H    -8.29093    6.09332  -10.76715
       O    -8.82428    6.74185  -11.30959
      H1    -8.63702    7.54179  -10.92408
       H    -2.39386    7.86860  -13.29923
       O    -3.08593    7.36722  -13.69485
      H1    -2.78790    6.61229  -14.19784
       H   -12.58939    5.75765  -15.61793
       O   -12.54933    6.56018  -15.02815
      H1   -13.47977    6.65354  -14.67927
       H    -0.98903    9.86340  -13.43877
       O    -1.46218    9.69015  -12.53073
      H1    -1.25567   10.49417  -12.08634
       H    -9.37101   11.09942  -14.67970
       O   -10.12998   11.30960  -14.10911
      H1    -9.75291   11.38109  -13.22243
       H    -9.80007   13.63218  -19.52406
       O    -9.35427   12.81545  -19.39982
      H1    -9.82437   12.19550  -18.89075
       H    -6.68631    3.48193  -13.46951
       O    -6.20445    3.11816  -12.71132
      H1    -5.25292    3.18610  -12.89335
       H    -2.37637    9.32579  -17.16196
       O    -2.56923    9.36627  -16.21223
      H1    -3.49012    9.52926  -16.11695
       H    -4.90936   13.82534  -19.96998
       O    -4.41681   13.45588  -19.24277
      H1    -5.04378   12.87630  -18.81098

