132
frame 11 | Written by MDAnalysis XYZWriter (release 2.4.3)
       H    -2.44245   16.88450   -1.57932
       O    -2.96890   17.31481   -0.90409
      H1    -2.66662   18.19467   -0.66586
       H     0.42734   14.35164   -1.51566
       O    -0.11764   13.93462   -2.21116
      H1    -0.83634   14.53966   -2.41737
       H     2.73045   16.78783   -3.33783
       O     3.32565   16.25683   -3.90919
      H1     2.88173   15.42318   -4.04365
       H     2.57494   18.19137   -2.02936
       O     1.86867   17.58594   -2.03875
      H1     1.07346   18.12037   -2.12686
       H     1.75336   17.08718    1.06870
       O     1.34920   17.74752    1.65256
      H1     0.42447   17.42539    1.48637
       H    -2.04851   18.33169   -5.26278
       O    -1.21944   18.01184   -4.91036
      H1    -0.69434   17.89118   -5.72499
       H     7.68950   14.50140   -5.06877
       O     8.34983   14.38383   -4.37317
      H1     7.82269   14.06260   -3.61782
       H    -2.21069   15.37680   -3.45268
       O    -1.58580   16.04274   -3.07148
      H1    -1.46569   16.67252   -3.81987
       H     5.73663   12.95701   -1.62085
       O     5.08779   12.25287   -1.34379
      H1     5.50739   11.41408   -1.66471
       H     7.68164   19.79632   -4.21825
       O     7.28783   19.25808   -3.53445
      H1     6.97501   19.76910   -2.82170
       H     5.65284   16.21099   -8.88564
       O     6.02799   16.27434   -9.78733
      H1     6.70909   15.59939  -10.06404
       H     1.56522   16.21629   -0.94912
       O     1.28342   15.45569   -0.42281
      H1     0.41683   15.69860    0.04536
       H     4.68372   14.62098    2.12076
       O     5.54580   14.88903    1.72082
      H1     5.90152   15.51047    2.39822
       H     0.59770   15.07848   -5.38988
       O     0.22289   15.28037   -6.25977
      H1     0.85652   14.74445   -6.79494
       H     2.07142   17.82385  -10.51327
       O     1.61549   17.91705  -11.33868
      H1     0.86049   18.51801  -11.21255
       H     2.21352   10.81845   -5.51362
       O     1.37499   11.19940   -5.84111
      H1     0.70929   10.63855   -5.35762
       H    -0.25693   11.59582   -2.28404
       O    -0.58965   10.82094   -2.78851
      H1    -1.50981   10.80267   -2.76199
       H     4.21289   16.71430   -7.38035
       O     5.07022   16.45664   -7.18412
      H1     5.52951   17.28581   -6.93994
       H    -4.06720   15.69177   -5.53801
       O    -4.75313   16.30868   -5.24931
      H1    -4.52101   16.34040   -4.27523
       H    -1.09114   12.60561   -0.34267
       O    -0.78134   11.92542    0.21079
      H1    -0.17116   11.37346   -0.22961
       H     6.72083   19.05170   -0.37290
       O     5.86593   18.97329   -0.86776
      H1     5.85437   18.07541   -1.12973
       H     4.86481   11.89753   -3.61238
       O     5.14227   11.23771   -4.24114
      H1     4.28552   10.77738   -4.44512
       H     5.87372   14.94284   -6.44505
       O     6.42592   14.17363   -6.09235
      H1     5.72655   13.46889   -5.98567
       H    -1.63440   15.65396    1.32930
       O    -1.14507   16.32700    0.86258
      H1    -1.89473   16.70053    0.35560
       H     8.51220   16.39048   -3.06952
       O     8.16102   16.84222   -2.28666
      H1     7.85660   17.72813   -2.73238
       H    10.83614   16.66987   -2.23023
       O    10.73877   17.62944   -2.28254
      H1     9.77499   17.60972   -2.34174
       H     4.11660   18.07796   -3.86514
       O     4.11426   18.99092   -3.49905
      H1     5.06931   19.02625   -3.39141
       H     0.07025   13.23151   -8.82916
       O     1.02083   13.34877   -8.62866
      H1     1.38101   13.85430   -9.34746
       H     1.82938   17.71988   -8.05427
       O     2.61661   17.47437   -8.51510
      H1     2.99960   18.31423   -8.71695
       H     4.54861   15.55632   -0.82365
       O     4.98906   16.07627   -1.48204
      H1     4.51797   16.00115   -2.30069
       H     8.43387   17.92700    0.15790
       O     8.51761   18.88081    0.11186
      H1     8.60940   19.11456    1.03398
       H     2.19140   17.06506    2.97549
       O     2.62170   16.51837    3.67881
      H1     2.00154   15.77428    3.72647
       H     6.44915   19.33966   -7.55885
       O     6.47449   18.78222   -6.74772
      H1     6.13005   19.32678   -6.02843
       H     1.17421   13.52486   -3.48447
       O     1.73246   13.54754   -4.23553
      H1     1.41268   12.79131   -4.76451
       H    -4.02684   19.45628   -4.82883
       O    -3.73371   18.81793   -5.48794
      H1    -4.28964   18.00933   -5.43074
       H     9.49670   18.45780   -6.23537
       O     9.12221   18.25823   -7.10077
      H1     8.28502   18.69956   -7.11821
       H     8.07756   13.17152   -6.76491
       O     8.51304   12.31494   -7.09670
      H1     8.54568   11.75618   -6.30349
       H    -2.69660   14.02508   -5.45621
       O    -2.68276   14.62540   -6.22473
      H1    -1.73419   14.86599   -6.30152
       H     6.59656   12.22256    1.44985
       O     5.91760   11.58360    1.30784
      H1     5.68189   11.73317    0.37569
       H     1.75982   10.33928   -1.02195
       O     1.75443   11.29902   -1.03962
      H1     2.64043   11.54079   -0.84277
       H    -3.42743   13.14116   -3.89088
       O    -2.49799   13.38896   -3.94775
      H1    -2.08085   12.55103   -4.13633
       H     7.19731   14.96874   -1.58203
       O     7.15781   14.13229   -2.03657
      H1     7.65075   13.56155   -1.42329
       H     0.42789   16.74469   -7.00404
       O     0.22765   17.63169   -7.33434
      H1    -0.59448   17.57647   -7.89581
       H     4.09221   12.19324    1.69583
       O     3.22704   12.56337    2.07905
      H1     2.52014   11.93658    1.94296

