132
frame 3 | Written by MDAnalysis XYZWriter (release 2.4.3)
       H     6.18196  -18.95418  -15.17397
       O     5.29995  -19.28430  -14.96086
      H1     5.39500  -20.25841  -14.95782
       H    -1.02419  -15.83124  -10.51186
       O    -1.99074  -15.93717  -10.56541
      H1    -2.38826  -15.04103  -10.61764
       H     7.77732  -18.23694   -3.98675
       O     7.98020  -19.04049   -4.50619
      H1     7.24694  -19.66193   -4.34148
       H     3.26516  -16.51481   -9.10747
       O     3.13571  -17.48904   -9.15133
      H1     3.85041  -17.83433   -9.72931
       H     1.71197  -12.19315   -6.18593
       O     1.07836  -12.62506   -6.77631
      H1     0.36182  -13.04549   -6.21651
       H    -0.65099  -17.85481   -7.60214
       O    -0.69236  -18.79829   -7.72371
      H1    -0.30319  -18.84662   -8.62495
       H     3.48965  -11.54897   -4.73222
       O     2.54471  -11.60968   -4.65121
      H1     2.44703  -12.54182   -4.43682
       H     5.16167  -16.86842  -14.84760
       O     5.46615  -16.21514  -14.18917
      H1     6.31007  -16.51387  -13.80812
       H    -3.57972  -17.96728   -5.00663
       O    -2.65721  -18.13551   -5.19327
      H1    -2.42426  -17.40470   -5.80175
       H     6.61826  -12.75513  -11.30677
       O     5.78243  -12.74215  -11.75614
      H1     5.89066  -12.62293  -12.69403
       H     6.39235  -13.92417   -4.03627
       O     5.51533  -13.53381   -4.30337
      H1     4.88672  -14.24660   -4.20959
       H     5.40573  -12.82948  -15.39672
       O     5.41419  -13.62542  -15.94515
      H1     5.41404  -14.35382  -15.34780
       H    -1.08049  -14.62360   -5.60642
       O    -0.71233  -13.83942   -5.10349
      H1    -1.49447  -13.30033   -4.93509
       H     8.29381  -17.00571   -9.12314
       O     8.33108  -16.09920   -9.55435
      H1     8.12804  -16.33743  -10.45803
       H     0.70212  -14.18187   -4.02863
       O     1.38747  -13.98889   -3.37878
      H1     0.92963  -13.91966   -2.54696
       H     7.83096  -17.41264   -5.98012
       O     7.08354  -16.75127   -5.93042
      H1     7.58580  -15.96953   -6.10971
       H    -1.77485  -16.85287  -12.01359
       O    -1.71088  -17.22864  -12.88457
      H1    -1.03294  -17.92640  -13.00809
       H     5.36467  -11.61128   -8.92574
       O     6.24089  -11.84263   -8.62008
      H1     6.43572  -11.23863   -7.93980
       H     0.81041  -15.83791  -14.59627
       O     1.53021  -16.22334  -15.12349
      H1     1.50396  -17.18580  -14.93780
       H     3.08194  -19.10302  -12.20274
       O     2.17614  -18.83152  -12.37321
      H1     2.27726  -17.89412  -12.63069
       H     6.08204  -13.80631   -8.72551
       O     6.15119  -14.72616   -8.45311
      H1     6.90926  -15.02726   -8.99983
       H     9.45822  -19.15636   -6.33057
       O     9.60603  -18.44594   -6.96231
      H1     9.97488  -18.80147   -7.77386
       H     2.10520  -11.28677   -8.69702
       O     2.97358  -10.98123   -8.76904
      H1     2.87351  -10.38922   -9.55212
       H     7.05242  -15.91234   -2.80222
       O     6.52788  -16.69437   -3.07575
      H1     6.44497  -16.72669   -4.08604
       H    11.45621  -15.38312   -9.20934
       O    10.70969  -14.93766   -8.75494
      H1     9.94823  -15.41973   -9.13966
       H     7.00025  -19.84057   -9.62124
       O     7.32258  -19.27101   -8.88112
      H1     6.58751  -19.16361   -8.25083
       H     0.32854  -13.89226  -12.78013
       O     0.41149  -13.72195  -13.71358
      H1    -0.42785  -13.34414  -13.83559
       H    -0.97029  -10.88991  -10.77448
       O    -0.03563  -10.77860  -10.42809
      H1     0.31250  -11.69634  -10.45798
       H     4.14804  -16.27293  -13.12585
       O     3.15723  -16.23655  -12.92326
      H1     2.68059  -16.17252  -13.78152
       H    -2.59812  -15.53393   -6.70273
       O    -1.73564  -15.90830   -6.62983
      H1    -1.39848  -15.93856   -7.52427
       H     3.10627  -14.23390  -12.21857
       O     3.31801  -13.48042  -11.58591
      H1     4.25256  -13.17009  -11.60366
       H     1.33602  -18.39210  -10.23258
       O     0.41652  -18.19377  -10.28028
      H1    -0.08514  -18.93606  -10.68319
       H     0.76210  -19.12514   -6.88574
       O     1.66738  -19.38980   -6.53027
      H1     2.19951  -18.57908   -6.42581
       H     3.62632  -15.99307   -3.26715
       O     3.34780  -15.55373   -4.03303
      H1     2.53413  -15.12599   -3.80712
       H     1.13240  -15.93044   -7.73056
       O     0.46525  -16.01023   -8.44440
      H1     0.78383  -16.60417   -9.08781
       H     1.37934  -13.04091  -10.41019
       O     0.49156  -13.37439  -10.42564
      H1     0.56030  -14.04937   -9.74700
       H     3.36951  -14.66812   -9.96723
       O     3.50175  -14.88906   -9.05570
      H1     4.47029  -14.88340   -8.94533
       H     9.26548  -13.46800  -11.07145
       O     8.63128  -12.78501  -10.80665
      H1     8.69189  -12.85834   -9.84711
       H     2.87219  -15.48405   -7.28765
       O     2.58684  -16.07105   -6.59426
      H1     3.04386  -15.82935   -5.72958
       H    -3.59015  -16.95515  -10.09873
       O    -4.30938  -17.54824   -9.90037
      H1    -4.97546  -17.06036   -9.37492
       H     7.47811  -14.15051   -7.11444
       O     8.22287  -14.25350   -6.53276
      H1     8.48273  -13.34456   -6.34869
       H     4.39090  -18.60149   -7.52861
       O     5.08098  -18.97029   -6.92929
      H1     5.50956  -18.19139   -6.57044
       H     2.97878  -11.97554  -12.25202
       O     3.10085  -11.03872  -12.49188
      H1     2.40932  -10.71340  -13.08610
       H     8.69493  -16.73659  -12.82126
       O     8.07361  -16.99367  -12.13509
      H1     8.27021  -17.94886  -12.02745

