132
frame 8 | Written by MDAnalysis XYZWriter (release 2.4.3)
       H     8.00265    8.74767  -13.31503
       O     9.00430    8.72456  -13.19811
      H1     9.11218    8.31660  -12.29232
       H    12.88735    9.88878  -13.75606
       O    13.32887   10.29037  -14.51508
      H1    13.87551   10.95258  -14.11358
       H    12.40196   12.75464  -16.67594
       O    12.92154   13.56183  -16.68325
      H1    13.40277   13.60292  -15.88948
       H    16.93411   14.38694  -16.33311
       O    16.78030   14.48098  -15.32035
      H1    16.26617   13.75097  -15.02929
       H     9.23234   13.25102  -12.56734
       O     8.95810   13.83685  -13.35478
      H1     8.47013   13.22098  -13.94123
       H    13.10041   11.94591  -11.19593
       O    13.62783   12.57802  -11.67801
      H1    13.06758   13.37969  -11.63988
       H    15.28243   12.01967  -12.01691
       O    16.05084   11.72962  -12.51752
      H1    16.81192   12.21963  -12.19641
       H    13.68763    8.02463   -8.02114
       O    13.87520    8.34334   -8.91674
      H1    13.25318    9.00855   -9.19429
       H    16.62316   16.36414   -8.81493
       O    16.96478   15.57727   -8.36906
      H1    17.76515   15.33481   -8.88255
       H    10.51890   11.09015   -7.82664
       O    10.90364   11.87626   -7.38833
      H1    10.54947   12.64748   -7.89486
       H    16.65219   15.97798  -14.02085
       O    16.21557   16.79670  -13.94386
      H1    15.56513   16.73921  -14.68662
       H    13.65587   17.23886  -10.85457
       O    13.39577   16.76432  -10.05438
      H1    13.16029   15.83481  -10.32791
       H    17.58554   10.48559   -8.30016
       O    18.09260   10.26510   -9.13983
      H1    17.33234   10.00232   -9.77838
       H     9.77325   11.98664  -10.63394
       O    10.24999   12.38500  -11.41086
      H1    10.13680   11.82443  -12.21223
       H    11.64734   10.25374  -10.05306
       O    12.60788   10.40231  -10.22381
      H1    12.90899   10.77623   -9.41393
       H    18.27075   13.39506  -15.01167
       O    18.90014   12.77059  -14.62344
      H1    18.67801   11.89601  -15.02071
       H     9.20689   16.88568  -13.71290
       O     9.91488   16.31306  -14.15313
      H1     9.78930   15.35033  -13.92223
       H    11.47671   17.57921   -7.52816
       O    11.65613   18.00087   -8.34236
      H1    12.34676   17.43819   -8.79290
       H    17.66977   18.24442  -11.48610
       O    16.79910   18.50874  -11.86502
      H1    16.69647   17.87262  -12.63408
       H    16.74352   10.61425  -17.18226
       O    16.54248   11.52898  -17.22185
      H1    17.32217   11.82487  -17.78517
       H    13.59777    7.47064  -13.29068
       O    12.80220    7.87686  -13.05867
      H1    12.16692    7.20059  -12.81925
       H     8.29120   16.02265  -10.87028
       O     7.69790   15.43194  -11.30155
      H1     8.24615   15.07798  -12.03229
       H    15.24882    8.67461  -16.33994
       O    15.40618    9.30285  -15.60298
      H1    14.52405    9.53366  -15.21909
       H    10.39033    8.27164   -9.69516
       O    10.42163    8.36510  -10.63475
      H1    11.03792    7.67544  -10.89353
       H    15.47947   11.66865  -15.52458
       O    15.18705   12.33283  -14.89726
      H1    15.59067   11.95961  -14.12760
       H    14.45193   12.05368   -7.86696
       O    13.71885   11.42132   -7.86266
      H1    12.96345   11.86857   -7.50339
       H    11.41211   15.31308   -9.04932
       O    10.93461   15.07810   -8.26718
      H1    11.66870   15.11037   -7.66422
       H    13.02685   17.04784  -13.75577
       O    12.43752   16.85810  -12.98284
      H1    11.58203   16.60762  -13.47034
       H    18.28754   12.05204  -10.27452
       O    18.16226   12.79713  -10.82998
      H1    18.61882   13.51716  -10.32623
       H    10.25261    8.91293   -6.95913
       O    10.02404    9.05367   -7.88760
      H1     9.18471    8.59023   -8.10496
       H    15.79815    8.24319  -12.55768
       O    15.50464    7.67261  -13.30770
      H1    15.48540    8.29567  -14.08598
       H    10.82133   11.02622  -14.58966
       O    10.26494   11.08177  -13.73380
      H1     9.93052   10.21174  -13.43901
       H    14.74572   17.68058   -9.48724
       O    15.71915   17.93320   -9.45163
      H1    16.03624   18.05451  -10.35497
       H    11.95616   19.69486  -13.49661
       O    12.36771   19.57303  -12.64215
      H1    12.36962   18.59373  -12.57902
       H    15.30014    9.09065  -10.61806
       O    16.12821    9.43989  -10.92962
      H1    16.04918   10.17956  -11.58072
       H    15.67817   13.47072   -6.26759
       O    15.21507   13.73901   -7.09045
      H1    15.87784   14.21731   -7.58306
       H    13.91286   10.18170   -6.55869
       O    13.97925    9.82471   -5.70546
      H1    13.08788    9.79326   -5.37411
       H     7.84487   11.65211   -8.82825
       O     8.52757   11.09692   -9.23180
      H1     8.86305   10.38416   -8.66236
       H    11.30299   13.86005  -11.15658
       O    11.86722   14.59301  -10.86347
      H1    11.94290   15.14849  -11.68587
       H    13.98363   18.49263  -15.58953
       O    13.83310   17.50855  -15.39278
      H1    13.50075   17.18601  -16.26869
       H    10.69155   10.86765  -16.81231
       O    11.46652   11.34680  -16.44818
      H1    12.16172   10.75277  -16.21146
       H     8.84799   11.59633  -14.75518
       O     8.06689   12.01402  -15.15153
      H1     7.28741   11.51494  -14.90003
       H    17.51768    9.89542  -14.72073
       O    18.41159    9.76802  -15.02573
      H1    18.29531    9.34761  -15.88552
       H    14.10004   15.00342   -6.47550
       O    13.26192   15.45010   -6.60477
      H1    12.68136   15.17096   -5.88347

