132
frame 9 | Written by MDAnalysis XYZWriter (release 2.4.3)
       H   -11.82197   10.17043    3.04288
       O   -12.55755   10.71560    2.88803
      H1   -12.19480   11.60562    2.91824
       H   -12.25827    6.57246   -4.45001
       O   -11.37119    6.83153   -4.10209
      H1   -11.53994    6.85741   -3.10791
       H    -7.28366    5.26162   -3.74545
       O    -7.40903    5.22579   -2.75694
      H1    -7.58703    4.29883   -2.59581
       H   -10.33674    4.08172   -4.40559
       O    -9.71822    4.65298   -4.90754
      H1   -10.00009    5.53485   -4.69662
       H   -15.24773    5.13617   -2.44342
       O   -14.33612    5.22907   -2.06897
      H1   -14.16691    6.16660   -2.02958
       H   -13.20817    9.38801   -0.21950
       O   -12.72460    8.68661   -0.65909
      H1   -12.47583    8.15614    0.10969
       H   -15.30632    8.48607   -3.04768
       O   -14.47968    7.99924   -2.95965
      H1   -13.86276    8.46192   -2.42064
       H    -9.74268    4.45677    4.78858
       O    -9.22393    4.55098    3.99218
      H1    -8.40266    3.98711    4.13021
       H    -6.42677    4.24990   -5.82154
       O    -6.94120    5.03702   -5.47761
      H1    -7.86011    4.75736   -5.42183
       H    -9.31280   11.48742   -0.35784
       O    -8.47840   11.41184    0.01797
      H1    -7.98498   12.15093   -0.30850
       H    -5.83998    4.46451    1.19097
       O    -6.09999    4.38270    0.27254
      H1    -6.76489    3.69874    0.33143
       H    -4.42637    5.49056   -3.11985
       O    -4.55325    5.08061   -2.25722
      H1    -5.53124    5.07022   -2.06050
       H   -11.24003    0.48878    3.24469
       O   -10.86930    1.00570    2.51744
      H1   -10.59721    0.34688    1.86735
       H   -13.60991    0.45675    1.23780
       O   -13.64638   -0.37305    1.66065
      H1   -14.55691   -0.62745    1.61704
       H    -9.12479    6.04404    3.15952
       O    -9.08003    6.97288    2.78496
      H1    -8.10599    7.24302    2.67320
       H    -5.95633    8.84754    1.81085
       O    -6.23634    8.07563    1.28066
      H1    -5.60768    8.13532    0.54987
       H   -10.92036    7.71841    5.53449
       O   -11.48499    6.85662    5.49039
      H1   -12.39601    7.25872    5.37200
       H   -11.58134   10.94092   -2.87914
       O   -12.22474   11.27409   -3.48478
      H1   -12.92039   11.82106   -3.07539
       H   -15.58511    3.79090    0.75456
       O   -15.70079    4.69987    0.45506
      H1   -15.16932    4.79010   -0.34707
       H   -14.36349    9.98109    1.25499
       O   -14.40733   10.87030    0.87858
      H1   -15.27184   11.00272    0.47841
       H   -13.24378    5.01631    2.86820
       O   -13.75134    5.81433    2.48004
      H1   -14.49365    5.34822    2.05836
       H    -8.71690    2.15161   -2.87416
       O    -7.77226    2.42520   -2.74481
      H1    -7.23314    1.73362   -3.21364
       H   -10.30926    1.47562   -1.61599
       O   -10.30755    1.70122   -2.54190
      H1   -10.99123    2.42802   -2.55300
       H   -10.97118    3.64884    0.68166
       O   -10.70830    3.39177   -0.21179
      H1   -10.78321    4.16798   -0.74784
       H    -9.29447    9.95430    3.15500
       O   -10.12602    9.43195    3.29686
      H1    -9.80516    8.50481    3.27107
       H    -7.76823    7.23898   -0.09229
       O    -8.24233    7.11389   -0.89531
      H1    -7.81927    6.43939   -1.44500
       H   -13.83877    6.35516    4.40463
       O   -14.16685    6.86824    5.14060
      H1   -14.65641    6.19352    5.66353
       H   -11.44228    9.83734   -4.71539
       O   -10.73740    9.34871   -5.10407
      H1   -10.86159    8.37954   -4.84064
       H   -12.31307    0.73341   -0.49912
       O   -12.80324    1.55137   -0.35792
      H1   -12.20121    2.27797   -0.45989
       H   -12.62772    2.84623   -3.65580
       O   -12.35130    3.49853   -3.01470
      H1   -13.11038    4.07800   -2.72119
       H   -11.78832   11.25043    0.25306
       O   -11.34439   11.87432   -0.35355
      H1   -12.13334   12.24751   -0.82506
       H   -14.30702    7.59728    1.96100
       O   -14.91937    8.37833    1.92602
      H1   -15.50109    8.07745    1.20429
       H   -10.63874    3.85921    2.89337
       O   -11.47363    3.70208    2.43702
      H1   -11.53289    2.73847    2.46811
       H   -11.11873    0.17484   -2.48709
       O   -11.66083   -0.56556   -2.87377
      H1   -11.84104   -1.09981   -2.09491
       H   -14.00446    2.16644    0.74033
       O   -14.53022    2.40856    1.50131
      H1   -15.06754    1.61541    1.59054
       H    -7.68681   10.34290   -1.07716
       O    -7.21163    9.64743   -1.65887
      H1    -7.56905    8.81438   -1.42233
       H    -9.74693    8.45595   -2.18890
       O   -10.33675    9.20482   -2.00814
      H1   -11.16365    8.92211   -1.66033
       H   -12.13803    6.26434    1.75398
       O   -11.55415    6.81727    1.23188
      H1   -10.67668    6.73097    1.64979
       H   -10.18761    6.34629   -1.24791
       O   -10.89914    5.71422   -1.22321
      H1   -11.35833    6.00875   -0.36108
       H   -16.95454    6.02632    0.74644
       O   -17.39272    6.84073    0.97656
      H1   -17.37106    7.39606    0.19845
       H    -8.11455   10.18890   -3.21560
       O    -8.22064   10.73030   -4.01486
      H1    -9.04093   10.40597   -4.43365
       H    -9.07368    2.71525   -0.19287
       O    -8.20428    2.26193   -0.21771
      H1    -7.90399    2.35583   -1.15836
       H   -13.13016    7.75856   -5.91275
       O   -13.81878    7.13675   -5.68095
      H1   -14.16846    7.47277   -4.85951
       H   -10.00680   -0.87598   -0.67608
       O   -10.10870   -0.08832   -0.11999
      H1    -9.26905    0.41647   -0.15527

