132
frame 0 | Written by MDAnalysis XYZWriter (release 2.4.3)
       H     8.89919    7.90888  -11.02213
       O     9.18687    8.54765  -10.34081
      H1     9.20180    8.21462   -9.45389
       H    10.69073   11.35837  -13.49230
       O    10.88361   12.09306  -14.03018
      H1    11.80878   12.37546  -13.65297
       H     9.19171   17.38706  -12.87713
       O     8.98508   16.47154  -12.96047
      H1     9.79878   16.00392  -12.88133
       H     7.40748   16.28531  -11.79900
       O     6.49190   16.09880  -11.65669
      H1     6.53144   16.29796  -10.71038
       H     4.08446   12.21206  -12.29233
       O     4.07699   11.86166  -11.42074
      H1     3.16831   11.77026  -11.16060
       H    14.25591   10.99958  -10.69787
       O    14.28701   11.91301  -11.02368
      H1    13.65238   12.39969  -10.50580
       H     5.39097   15.35508  -16.57471
       O     6.30968   15.18178  -16.40392
      H1     6.40300   14.83584  -15.51232
       H    11.91485   13.82931   -9.49897
       O    12.76749   13.82160   -9.90931
      H1    12.74987   14.36566  -10.72826
       H    12.81408    9.85410  -16.53739
       O    13.02749    8.99617  -16.91662
      H1    12.15052    8.70649  -17.25328
       H    10.16841   12.56285   -8.81210
       O     9.73629   13.45686   -9.15467
      H1     9.79484   13.60544  -10.11724
       H    10.97579   10.90081   -9.27290
       O    10.92227   11.23660   -8.34181
      H1    10.05434   10.82006   -8.02716
       H     3.51021    8.59232  -11.85551
       O     4.24605    8.89700  -11.26562
      H1     4.20851    9.85965  -11.27859
       H     8.18353   10.57089  -16.82892
       O     8.93289   10.27070  -16.29200
      H1     9.72084   10.72560  -16.61605
       H    11.97270    9.95258  -11.42835
       O    11.18031   10.32988  -11.03919
      H1    10.59720    9.60057  -11.03016
       H     6.15018    8.45759  -14.47501
       O     5.84101    8.84784  -15.30382
      H1     6.74405    9.10088  -15.61534
       H     8.99182   14.86623  -15.20090
       O     9.69270   15.28847  -15.73481
      H1     9.18426   15.80617  -16.40759
       H     9.16225    6.70743  -13.32139
       O     8.67198    7.40971  -12.88347
      H1     8.83160    8.21394  -13.32281
       H     9.91132    4.81068  -14.51962
       O    10.15476    5.20496  -13.65903
      H1    11.05854    5.55208  -13.66201
       H     6.43762    6.37752   -9.07111
       O     6.53382    5.58757   -9.69434
      H1     6.18346    5.75741  -10.61064
       H    10.29168    7.14355   -7.61679
       O     9.51261    7.07337   -8.17395
      H1     9.41905    6.13088   -8.40029
       H    14.15311   11.78602  -14.01724
       O    13.66491   12.47669  -13.54924
      H1    13.76561   12.21619  -12.67496
       H     6.94722   14.17603  -17.73376
       O     7.33393   13.62025  -18.42456
      H1     8.19208   13.34996  -18.03465
       H    10.13510   13.64146  -18.79340
       O    10.06520   13.34998  -17.84637
      H1    10.06619   14.10484  -17.26056
       H     7.85256    6.61175  -18.49888
       O     7.73795    6.72927  -17.56989
      H1     8.25591    7.53813  -17.51067
       H     7.99337   12.91632   -8.61171
       O     7.03225   12.67805   -8.68534
      H1     6.69678   13.08395   -9.49298
       H     3.82432    8.87166  -15.26293
       O     2.97905    9.12766  -15.66625
      H1     2.38786    9.05107  -14.91948
       H     2.74126   12.43481  -16.38567
       O     3.19388   12.71166  -15.55436
      H1     4.10615   12.58474  -15.73418
       H     7.77494    5.51277  -16.33184
       O     7.82376    4.64529  -15.88245
      H1     6.90703    4.54259  -15.57582
       H    13.11731    7.87079  -11.95547
       O    13.54217    8.72444  -12.11740
      H1    14.39797    8.54740  -12.58703
       H    10.06669   13.20146  -12.22684
       O     9.27117   13.59080  -11.79617
      H1     8.76172   12.79981  -11.55450
       H     5.42909    7.06687   -7.33814
       O     6.12264    7.42055   -7.86375
      H1     5.86203    8.34544   -7.79265
       H     5.68135   10.93687   -8.21916
       O     5.34663   10.14735   -7.68398
      H1     4.51717    9.84103   -8.02432
       H    10.94188    6.72102  -10.97172
       O    11.87850    6.54715  -11.23390
      H1    12.23968    6.61451  -10.33628
       H     8.80263   10.18656  -14.62569
       O     8.92042    9.91093  -13.65974
      H1     8.36566   10.50804  -13.09266
       H     7.91832   10.27610  -10.96247
       O     7.88925   11.09881  -11.50285
      H1     6.99115   11.50646  -11.47290
       H     6.52598   11.89286  -17.82481
       O     6.52926   10.97740  -17.43460
      H1     6.34576   10.36570  -18.13416
       H     6.28294   14.51481  -11.43820
       O     6.34926   13.57066  -11.22925
      H1     5.44410   13.27110  -11.33470
       H     3.72964    8.81977   -9.72603
       O     3.42323    8.78219   -8.79856
      H1     3.69464    7.88006   -8.62954
       H     6.20634   10.83646  -14.62643
       O     6.04345   11.53448  -14.02962
      H1     6.63169   12.30823  -14.24744
       H     5.18928    5.86202  -15.78238
       O     5.37558    5.41193  -14.92945
      H1     5.89970    5.97257  -14.32620
       H     7.09669    6.91223  -12.24120
       O     6.13262    6.80015  -12.39227
      H1     5.71577    7.59978  -12.10198
       H    10.96232   16.70918  -11.82215
       O    11.38639   15.85882  -11.99625
      H1    11.98806   16.06511  -12.72982
       H    11.30495   12.26476  -17.24389
       O    11.72936   11.71141  -16.60464
      H1    11.29958   11.95190  -15.73781
       H     7.90861   13.83792  -13.35017
       O     7.80197   13.47742  -14.26492
      H1     8.59458   12.95529  -14.49710

