132
frame 4 | Written by MDAnalysis XYZWriter (release 2.4.3)
       H    16.03257   12.96770    3.66719
       O    15.93162   12.86142    2.70382
      H1    16.80013   12.90675    2.33433
       H    19.39237   12.37296    2.04445
       O    18.65246   12.78988    2.38967
      H1    18.36036   12.36348    3.19729
       H    16.97818   14.82564   -4.98903
       O    16.54029   15.58344   -5.44213
      H1    16.05004   15.07757   -6.05945
       H    18.67162   16.32831   -8.41406
       O    17.75427   16.23028   -8.23878
      H1    17.66418   16.39390   -7.27217
       H    16.07613   14.99660  -13.05535
       O    16.85153   15.39405  -12.56567
      H1    16.80377   14.85775  -11.78208
       H    14.62811   15.85669    2.70322
       O    14.71654   15.27657    1.93356
      H1    15.36741   14.55631    2.12803
       H    14.17513   11.72641   -4.21440
       O    14.53905   12.31736   -3.57067
      H1    13.94834   13.07916   -3.50578
       H    18.24300   15.91936   -3.92316
       O    19.06813   16.25763   -3.51436
      H1    18.75819   17.07565   -3.10466
       H    18.53724   15.09390    2.73382
       O    18.78437   15.63155    1.93904
      H1    18.07324   16.21642    1.72818
       H    15.45613   13.20774   -9.07307
       O    15.13501   12.40324   -8.67798
      H1    15.87008   12.05288   -8.16266
       H    10.51193   18.91683    0.67663
       O    11.38317   19.05430    1.19046
      H1    11.26989   19.57474    1.99301
       H    16.37122   10.45767   -3.19374
       O    17.13833   10.14739   -2.66128
      H1    16.66035    9.90430   -1.88640
       H    13.21917   17.52983  -10.22734
       O    13.61959   16.67255  -10.00301
      H1    13.28089   15.98651  -10.63103
       H    14.49758   10.82328   -0.15379
       O    15.25150   11.19335    0.28678
      H1    14.85516   11.50841    1.07816
       H    13.92895   19.00658   -1.54507
       O    13.96863   19.26102   -2.54027
      H1    14.00455   18.40776   -2.99721
       H    11.78996   17.43204   -6.66254
       O    12.37688   17.54778   -7.42465
      H1    12.62499   16.64119   -7.55135
       H    12.66197   17.76215    2.23115
       O    12.55565   17.02562    2.79928
      H1    12.05928   17.50026    3.49476
       H    16.04833   17.23223    0.45530
       O    16.68114   17.91738    0.50888
      H1    17.00059   18.17863   -0.34390
       H    16.47170   17.04583  -12.31577
       O    15.97742   17.86684  -12.01617
      H1    15.11012   17.56584  -11.65401
       H    18.77449   18.80576  -12.67724
       O    19.37793   18.49877  -13.44121
      H1    18.95602   17.64851  -13.71787
       H    10.98821   18.45319   -2.36288
       O    11.20004   19.26198   -2.87408
      H1    12.18508   19.25311   -2.97959
       H    18.98338   11.89046   -7.15600
       O    18.69044   11.18335   -7.80824
      H1    17.92819   10.79391   -7.31930
       H    15.55505   18.84181  -13.53568
       O    15.03426   19.05467  -14.35704
      H1    15.61611   19.36166  -15.09117
       H    16.17752   18.57515  -10.02727
       O    16.89162   18.85342   -9.38641
      H1    17.28469   18.00191   -9.00524
       H     9.40569   13.13938   -7.67974
       O    10.18794   13.26304   -8.17233
      H1    10.70630   13.86821   -7.61255
       H    14.19723   16.16808    0.52720
       O    14.15089   16.80812   -0.18689
      H1    13.22506   16.79870   -0.47532
       H    14.77352   14.08302   -1.40420
       O    13.83522   14.37695   -1.61107
      H1    13.69887   15.25147   -1.35775
       H    19.12566   12.56517   -9.14938
       O    19.39410   12.38161  -10.07279
      H1    19.85154   13.21011  -10.37836
       H    17.38443   18.43273    5.32708
       O    17.25694   18.19025    4.43640
      H1    16.32692   18.37084    4.20700
       H    18.18873   12.95207   -4.34580
       O    17.35788   13.37185   -4.16623
      H1    17.12248   13.51440   -3.26158
       H    15.03535   15.36180   -9.93828
       O    15.87946   14.82073   -9.85498
      H1    16.45831   15.30886   -9.23283
       H    11.28312   16.34224   -2.50754
       O    11.47692   16.73037   -1.61752
      H1    10.67716   16.56828   -1.10089
       H    10.78902   16.26445   -4.70107
       O    10.99005   15.51112   -4.19461
      H1    10.18593   15.03468   -4.00683
       H    14.69539   13.06505   -5.49405
       O    14.47285   13.63872   -6.24029
      H1    14.84857   13.22138   -7.02657
       H    13.80411   19.90071    4.43737
       O    13.89587   19.30727    5.20557
      H1    13.68411   19.87863    5.91115
       H     8.58090   17.70869    0.07248
       O     9.30867   18.25318   -0.24441
      H1     8.88676   19.08454   -0.46312
       H    11.15950   17.57831   -9.14246
       O    10.55400   17.73779   -9.86403
      H1    10.84387   18.54983  -10.24715
       H    17.85628   16.63753    4.70445
       O    18.36755   15.75495    4.69677
      H1    19.15862   15.91208    5.19014
       H    10.67864   18.74523   -4.54994
       O    10.69346   18.07723   -5.21844
      H1     9.82975   18.13318   -5.66287
       H    11.72129   12.52096   -0.59264
       O    11.72123   12.59616   -1.55000
      H1    12.42754   13.23856   -1.68776
       H    15.92413   12.56021   -2.36803
       O    16.24481   13.18553   -1.64150
      H1    16.34540   12.53333   -0.89651
       H    16.42093   18.66743   -3.90439
       O    17.22666   19.01135   -3.45427
      H1    17.72905   19.39976   -4.15620
       H    14.77203   17.87775   -5.03293
       O    14.94156   17.35374   -4.18203
      H1    15.52307   16.67926   -4.58673
       H    12.81328   14.32218   -6.57265
       O    11.91663   14.70797   -6.60410
      H1    11.64938   14.91566   -5.68034

