132
frame 7 | Written by MDAnalysis XYZWriter (release 2.4.3)
       H    -8.41930   19.35480   -7.17143
       O    -8.38327   19.22475   -6.19233
      H1    -9.29557   19.13121   -5.85659
       H   -12.77398   17.99192   -0.58395
       O   -13.12718   18.65447    0.00824
      H1   -12.76738   19.45103   -0.44386
       H   -11.39307   16.31427   -2.46512
       O   -11.77844   16.39791   -1.56582
      H1   -11.15829   16.11641   -0.88201
       H    -0.86259   16.45909   -3.19914
       O    -1.32911   16.24444   -2.38640
      H1    -1.57683   17.13010   -2.04084
       H    -1.90420   13.36581    3.44757
       O    -2.27597   14.27131    3.37844
      H1    -2.89220   14.36694    2.57408
       H    -9.41667   19.97054    1.32447
       O    -9.54881   19.06378    1.06587
      H1   -10.47005   18.79565    1.31498
       H    -5.50657   18.60498    5.22798
       O    -6.03991   17.81180    5.07450
      H1    -5.91236   17.66283    4.11292
       H   -11.43188   19.71484   -5.07633
       O   -10.79515   18.98592   -4.86188
      H1   -11.22470   18.22550   -5.25278
       H   -13.01937   15.47161   -2.23979
       O   -13.79292   14.99427   -2.62643
      H1   -14.46090   15.72124   -2.62434
       H    -7.50720   11.62280   -4.03332
       O    -7.23469   12.55795   -4.17308
      H1    -7.04745   12.62012   -5.12346
       H    -8.51814   10.27293    0.76448
       O    -8.14382   11.18791    0.87095
      H1    -8.43215   11.82153    0.14324
       H    -2.79246   18.12598    2.82760
       O    -1.91880   18.40719    3.13563
      H1    -1.31992   17.65997    2.85948
       H    -5.20331   18.89417   -2.38091
       O    -5.85225   19.58805   -2.07828
      H1    -5.81051   20.40674   -2.58412
       H   -12.40294   18.18529    1.56290
       O   -11.79114   18.24536    2.33393
      H1   -11.42394   17.38648    2.50914
       H   -10.38542   15.13613   -4.07842
       O   -10.59022   16.05711   -4.15758
      H1    -9.78342   16.47824   -3.93010
       H    -9.77513   19.61053   -0.91224
       O    -9.51511   19.87476   -1.75775
      H1   -10.01020   19.43777   -2.45515
       H    -8.37743   12.28118    3.34731
       O    -8.02763   11.46788    3.64175
      H1    -8.04300   10.97257    2.81550
       H    -9.74423   16.56253   -7.03074
       O   -10.42689   16.52404   -7.66734
      H1   -11.10490   17.13179   -7.33065
       H   -10.11431   15.51832    3.69382
       O   -10.70049   16.20760    3.99020
      H1   -11.38924   15.78079    4.52545
       H    -7.51588   17.59715   -6.20032
       O    -7.71803   16.64385   -6.01744
      H1    -7.02430   16.09125   -6.41212
       H    -7.23862   16.32580   -1.76242
       O    -6.76413   16.07405   -0.94933
      H1    -6.41115   15.16597   -1.20643
       H    -3.15642   16.08283   -5.53009
       O    -3.90589   16.69009   -5.49958
      H1    -4.44427   16.54885   -4.71484
       H    -4.28603   11.77354   -3.01795
       O    -4.61094   12.69033   -3.05062
      H1    -5.56450   12.56758   -3.40709
       H    -7.57112   13.50894   -1.11955
       O    -8.52857   13.37049   -1.16632
      H1    -8.81619   13.20194   -2.10448
       H    -7.69805   16.96918   -4.15903
       O    -7.94309   17.24856   -3.26387
      H1    -7.48954   18.07500   -3.15008
       H    -6.06797   14.54355   -6.99808
       O    -5.76018   15.44687   -7.14100
      H1    -5.00456   15.73526   -6.55531
       H    -4.84909   14.08349    1.99752
       O    -4.17460   14.67897    1.63723
      H1    -4.41619   15.55795    1.92078
       H    -4.80750   11.76824    3.38177
       O    -5.33041   11.96731    2.61162
      H1    -6.25604   11.98761    2.92250
       H    -6.61230   10.56754   -0.31563
       O    -5.79404   10.71863   -0.71934
      H1    -5.59617   11.63062   -0.58100
       H    -9.85163   13.18812    3.72178
       O    -9.38315   13.85341    3.22324
      H1    -9.96082   14.00895    2.50924
       H    -5.36616   19.39790   -0.26412
       O    -4.89664   18.88663    0.42645
      H1    -4.53431   19.53197    1.08298
       H    -9.79951   13.30329   -8.29793
       O    -9.53413   13.06435   -7.41269
      H1   -10.27017   13.45887   -6.92490
       H    -1.32761   18.36167   -0.17895
       O    -2.06074   18.48059   -0.82885
      H1    -2.88053   18.36468   -0.31828
       H    -5.03490   13.33446   -1.50733
       O    -5.50989   13.62682   -0.64360
      H1    -4.90339   13.94212    0.00795
       H    -6.48686   16.88705    2.04483
       O    -5.57425   16.99611    2.38605
      H1    -5.34207   17.75220    1.88575
       H    -3.67478   16.80646   -2.79946
       O    -4.57704   17.08713   -2.65998
      H1    -4.86225   16.63187   -1.85761
       H    -6.12908   12.32414   -7.18228
       O    -6.65604   12.95766   -6.72711
      H1    -7.54776   13.01003   -7.12443
       H   -11.10476   13.60787   -0.86287
       O   -11.63473   12.81750   -0.74536
      H1   -12.50175   13.11235   -1.02710
       H    -3.53415   19.71155   -5.09442
       O    -3.21400   19.28969   -5.90363
      H1    -3.43308   18.36606   -5.79332
       H    -7.50394   16.63237    0.56208
       O    -7.95404   16.96336    1.39326
      H1    -8.40139   17.83021    1.21715
       H    -2.73373   13.49601   -3.85306
       O    -2.10227   14.02388   -4.43548
      H1    -1.58251   14.50295   -3.81254
       H    -7.80586    9.52710   -2.86484
       O    -8.33501   10.00019   -3.49101
      H1    -8.13760    9.60107   -4.31929
       H   -10.58339   12.91349   -3.77599
       O    -9.82187   13.53700   -3.86252
      H1    -9.04773   13.01392   -4.24363
       H    -9.09258   14.76157   -0.14832
       O    -9.79843   15.30950    0.25818
      H1    -9.25180   15.86845    0.77273

