132
frame 0 | Written by MDAnalysis XYZWriter (release 2.4.3)
       H     1.75525   10.14218   -1.23084
       O     2.00163    9.39613   -1.76212
      H1     2.54384    8.78137   -1.18330
       H     0.28797    4.68234    3.97148
       O    -0.14774    5.38529    3.47833
      H1     0.63034    5.75878    3.02329
       H     1.87495    4.47436    6.34421
       O     0.99791    4.68227    6.60529
      H1     1.10150    5.59496    6.97906
       H     4.02036    5.98482    2.16039
       O     4.46010    5.22706    1.78127
      H1     3.79997    4.79036    1.36204
       H     6.99239   13.25622    4.34321
       O     7.14410   12.31128    4.63994
      H1     6.27904   11.91776    4.74828
       H     2.83155    2.82349    1.35378
       O     3.03376    2.95424    0.40927
      H1     3.66970    2.31463    0.12735
       H     4.37239    4.34485    5.38525
       O     3.57843    3.83126    5.49347
      H1     3.28091    3.55427    4.63630
       H     0.36955   11.90124   -1.09551
       O     1.07063   11.62635   -0.55017
      H1     1.78325   12.17624   -0.85325
       H     6.33767    4.87895    4.22322
       O     6.18205    4.60895    5.10719
      H1     6.55429    5.23834    5.77029
       H     8.22900   10.52280   -1.23848
       O     7.25136   10.70109   -1.15592
      H1     6.92202   10.45207   -2.00130
       H     9.46627    7.35033    4.49410
       O    10.29757    6.92546    4.84436
      H1    10.98872    7.05829    4.22326
       H     1.19205    6.93607    1.36303
       O     1.90443    6.71333    1.99723
      H1     2.04064    7.52586    2.44704
       H     5.81976    4.09728    1.33448
       O     6.46016    3.50980    0.94655
      H1     6.76879    3.88896    0.09749
       H     0.57298    9.22954    6.16440
       O     0.50491    9.42406    7.10978
      H1     1.22246    9.97638    7.37199
       H     3.39923   13.73826    1.14044
       O     2.74962   14.41775    0.87322
      H1     3.21843   15.23129    1.18181
       H     3.23604    7.32985    0.59718
       O     3.52621    7.91986   -0.08696
      H1     4.02170    7.44226   -0.75294
       H     3.16297   11.37174    7.46420
       O     2.35243   11.04684    7.80698
      H1     2.47543   11.02363    8.78551
       H     1.49630   13.23546    5.98895
       O     1.76324   13.45403    6.88936
      H1     1.97788   12.57396    7.26320
       H    -0.12193   15.35645    2.58920
       O     0.32729   14.52842    2.44960
      H1     1.21251   14.75160    2.04151
       H     8.37400    9.15285    4.24964
       O     8.09453    8.21129    4.16287
      H1     8.22950    7.92663    3.28487
       H     9.99055   10.07649    5.54750
       O     9.02629   10.20215    5.77108
      H1     8.75023   11.05284    5.39448
       H     5.04257    8.30929    0.35407
       O     6.03248    8.25035    0.51004
      H1     6.58294    9.03538    0.24119
       H    -1.73231    6.19979    3.90949
       O    -2.59306    6.57626    3.88212
      H1    -3.01325    6.26714    4.74924
       H     7.25609    6.83147    1.43069
       O     8.09114    6.74665    1.85568
      H1     8.11214    5.81835    2.10359
       H     3.41671    8.89632    3.17042
       O     2.55383    9.08649    3.59885
      H1     2.19014    9.76642    3.02376
       H     7.01309    6.51373    7.45365
       O     6.18819    6.07637    7.23964
      H1     5.45164    6.42692    7.74171
       H    -0.98234    8.69441    3.51169
       O    -1.36238    9.26707    2.83025
      H1    -2.28553    9.24060    3.15922
       H     6.21067   14.98882    2.45377
       O     6.98999   14.35434    2.49936
      H1     7.14072   13.85613    1.61856
       H    -2.37586   11.98566    4.95263
       O    -2.04680   12.11682    3.97204
      H1    -2.12669   11.30042    3.49749
       H     4.97636   11.27663    3.50900
       O     4.79331   11.01187    4.45170
      H1     3.89397   10.71089    4.33350
       H     5.40436    7.42969   -2.54158
       O     4.44400    7.27456   -2.62590
      H1     3.90433    8.10024   -2.73496
       H    -0.65925    8.05156    1.19383
       O    -0.37157    7.29642    0.65322
      H1    -0.50371    7.62260   -0.25307
       H     0.95389   11.53443    2.81966
       O     1.56161   11.11712    2.22031
      H1     1.19941   11.44440    1.32533
       H     4.98148   11.70570    6.27467
       O     4.92845   12.15456    7.14924
      H1     5.73905   11.89197    7.60933
       H     2.02002    6.97359    8.41874
       O     1.15196    7.01705    7.98315
      H1     0.94638    7.89809    7.63613
       H    -0.22292   12.47997    4.37528
       O     0.66573   12.81302    4.45730
      H1     0.73112   13.59603    3.84796
       H     1.17573    7.98999    4.31546
       O     0.30231    7.65131    4.54459
      H1     0.06606    6.88132    4.01383
       H     7.28711   12.29014   -0.14442
       O     7.60973   13.12921    0.22305
      H1     8.45172   13.31655   -0.10140
       H     3.40244    5.77226    8.98760
       O     3.77688    6.69505    8.93331
      H1     3.98455    6.91224    9.86211
       H     1.15749    2.31824    2.65579
       O     2.02961    2.62533    3.00833
      H1     2.41886    1.86063    3.44143
       H     5.46881    7.62834    3.89270
       O     4.91729    7.82524    3.12128
      H1     5.49651    7.99401    2.37546
       H     0.60406    8.45976   -1.82003
       O    -0.21530    7.99397   -2.05386
      H1    -0.88254    8.63468   -2.28868
       H     9.74774   12.21121    3.41038
       O     9.49965   11.45736    2.94448
      H1     8.56590   11.62760    2.85517
       H     4.30111   11.64045    0.90781
       O     4.03483   12.08421    1.75767
      H1     3.11115   11.81332    1.96371

