132
frame 4 | Written by MDAnalysis XYZWriter (release 2.4.3)
       H    -2.36197   -8.51158    0.41163
       O    -2.65692   -9.21369    0.99510
      H1    -2.90840   -8.74030    1.80919
       H     3.89708   -8.04844    3.62540
       O     4.59950   -7.99807    2.94622
      H1     4.20516   -7.64593    2.09242
       H     0.02644  -16.65409    1.93991
       O     0.88768  -17.17238    2.01353
      H1     1.34753  -16.60759    2.59770
       H     0.39300  -12.15846    5.88886
       O     0.33442  -11.29393    6.33127
      H1     1.07266  -11.18100    6.99168
       H    -0.37398   -6.03352    5.40015
       O     0.21422   -6.65461    5.81008
      H1    -0.37649   -7.13244    6.42919
       H     2.76260  -14.80779    2.10361
       O     2.95881  -15.39002    2.87588
      H1     3.67071  -15.86532    2.48844
       H     0.72705  -12.02187   11.79945
       O     0.65445  -12.22260   10.87010
      H1     0.36527  -11.42537   10.34207
       H     1.97904   -5.66325    3.73452
       O     2.24606   -6.52658    4.13055
      H1     1.45091   -6.79472    4.68278
       H     1.88994  -11.05279    1.37477
       O     2.19361  -10.45088    2.05000
      H1     1.62708   -9.74190    1.81485
       H    -3.91604  -10.82314    6.49768
       O    -3.68827  -10.02562    5.97266
      H1    -3.30560  -10.31588    5.16370
       H    -0.16497  -13.64651    4.72881
       O     0.34760  -13.72475    5.53680
      H1     1.26720  -13.64395    5.14563
       H     5.11532  -11.79012    8.69319
       O     4.23588  -12.18834    8.58390
      H1     4.51704  -12.88586    7.99455
       H    -3.91572  -16.07824    6.03437
       O    -3.21559  -15.59983    6.59718
      H1    -2.56048  -15.51185    5.92674
       H    -4.06776  -15.34217    9.90655
       O    -3.77070  -14.46549   10.24042
      H1    -2.78937  -14.42228   10.19842
       H     5.49300   -8.40112    7.05778
       O     5.84428   -9.32419    7.06470
      H1     6.83164   -9.28655    7.03770
       H     3.14521  -16.15449    7.19235
       O     3.48261  -16.26128    8.05090
      H1     2.69023  -16.01942    8.59620
       H    -0.17199  -18.83644    7.29856
       O     0.05645  -17.87081    7.45895
      H1    -0.36059  -17.48174    8.22517
       H    -4.93466  -11.61969    1.11264
       O    -4.45876  -11.79273    1.96698
      H1    -4.91889  -12.48907    2.44602
       H    -3.02100  -17.40998    3.99093
       O    -2.29234  -17.52311    4.64857
      H1    -1.65731  -18.12552    4.23465
       H     0.66602   -9.86217    9.20117
       O    -0.24155  -10.17535    8.95728
      H1    -0.11370  -10.74695    8.24088
       H     4.31872  -17.30150    4.22573
       O     3.53971  -17.88587    4.35753
      H1     2.78638  -17.28308    4.54954
       H    -2.27081   -9.09206    6.45679
       O    -1.52312   -8.56389    6.79323
      H1    -1.19815   -9.02079    7.53460
       H     5.53120  -10.71889    5.99212
       O     5.28481  -11.28759    5.23674
      H1     6.05689  -11.37276    4.65888
       H    -3.88208  -14.15330    5.77644
       O    -4.20831  -13.28518    5.44333
      H1    -4.77471  -13.37323    4.64790
       H    -1.74338  -10.11036    3.57594
       O    -2.37417  -10.84848    3.70833
      H1    -2.87839  -10.93265    2.86788
       H    -1.67682  -15.81566    0.87838
       O    -1.57605  -16.06514    1.79474
      H1    -1.52012  -15.25232    2.34322
       H     2.31520   -9.84513   10.68791
       O     1.90673   -9.11246   10.24532
      H1     2.64320   -8.75498    9.69699
       H    -3.21347   -8.71006    9.36439
       O    -3.99799   -9.28388    9.25183
      H1    -3.91439   -9.63198    8.37098
       H     0.89470  -17.04608    6.26866
       O     1.41524  -16.52132    5.64000
      H1     0.93442  -15.68848    5.68444
       H     4.41739  -10.81631   10.90076
       O     3.73687  -11.01511   11.48965
      H1     3.42929  -11.91410   11.32565
       H     0.17671   -9.90976    4.75695
       O    -0.36365   -9.35515    4.21676
      H1    -0.66675   -8.63206    4.78835
       H     3.27212  -10.79505    7.63655
       O     2.49720  -10.22619    7.45109
      H1     2.66604  -10.02861    6.50281
       H     3.06292  -10.28832    3.77819
       O     3.21980   -9.81729    4.60798
      H1     4.09351  -10.21244    4.91261
       H     1.29066  -15.42417   10.66671
       O     0.96515  -16.13984   10.06917
      H1     1.33823  -16.91309   10.53634
       H    -3.40107   -7.71190    4.14611
       O    -3.74852   -7.84802    3.26809
      H1    -4.57053   -8.36127    3.33958
       H     0.35240  -11.39930    2.24054
       O     0.18004  -12.10503    1.53540
      H1    -0.52948  -11.64810    1.06993
       H     3.82174  -13.13994    5.21720
       O     3.01086  -13.63838    5.11797
      H1     3.05870  -14.26184    4.41440
       H     0.73768  -17.97114    4.69271
       O     0.42972  -18.66775    4.13659
      H1     0.40269  -18.13107    3.30454
       H    -0.86809  -13.24907    2.71245
       O    -1.39745  -13.64658    3.39384
      H1    -1.85235  -12.90939    3.84974
       H    -4.64972  -12.64252    8.92892
       O    -4.87788  -12.27368    8.03737
      H1    -4.43613  -12.83721    7.37560
       H    -4.51011  -11.34628   11.42487
       O    -3.53673  -11.39116   11.17215
      H1    -3.51223  -10.72051   10.48921
       H     2.19490  -13.34052   10.80083
       O     3.09239  -13.64861   10.83899
      H1     3.52468  -13.42818   10.02136
       H    -0.64503  -14.93677   10.58911
       O    -1.19919  -14.31564   11.07729
      H1    -0.79877  -13.44033   10.98862
       H     6.19559  -14.89833    7.24208
       O     5.56983  -14.57217    7.91710
      H1     4.88472  -15.21192    7.68235

