132
frame 3 | Written by MDAnalysis XYZWriter (release 2.4.3)
       H   -11.13702   17.31203   -0.25503
       O   -11.47298   16.92716    0.55653
      H1   -10.76492   16.48796    1.03300
       H   -10.49136   13.82966  -10.80327
       O   -11.19048   13.25492  -10.38105
      H1   -11.86221   13.19959  -11.06587
       H   -10.23946   16.86955   -8.58805
       O    -9.81652   17.22028   -9.34888
      H1    -9.06687   17.72852   -9.03848
       H   -12.94924   16.02784    0.03884
       O   -13.79803   15.67350   -0.34263
      H1   -14.23985   16.41689   -0.81170
       H    -8.05250   11.00139   -4.55628
       O    -7.88466   11.91758   -4.99617
      H1    -8.59236   11.96693   -5.64442
       H   -14.45383   12.10878   -5.44468
       O   -14.64447   12.83017   -6.08233
      H1   -13.80306   13.13646   -6.45024
       H   -11.83902   18.21763    1.77705
       O   -11.51887   19.03164    2.27096
      H1   -10.79024   18.66062    2.84159
       H   -13.29914   17.29926   -4.33146
       O   -13.09890   17.94338   -3.62632
      H1   -12.43856   17.50702   -3.05719
       H   -15.07220   18.43349   -1.31211
       O   -15.40822   17.57305   -1.59411
      H1   -15.02881   17.33477   -2.42844
       H    -9.20471   18.52870  -12.59201
       O    -8.67059   18.32134  -11.79680
      H1    -8.19375   17.50167  -12.03060
       H   -14.89507   13.30791   -2.42898
       O   -14.12245   12.67219   -2.45809
      H1   -13.98178   12.51203   -1.51317
       H   -10.75287   16.93608   -6.17419
       O   -11.13022   16.39143   -6.92260
      H1   -12.07650   16.60496   -6.98147
       H   -10.41179   18.78862   -5.15367
       O   -10.16831   17.93344   -4.81261
      H1    -9.29090   17.81927   -5.20647
       H    -6.30722   16.55361  -11.32664
       O    -6.79976   16.40388  -12.12906
      H1    -6.32973   17.06972  -12.63136
       H    -8.77178   17.06726   -1.78459
       O    -7.98461   16.59600   -1.60441
      H1    -8.13298   15.75786   -2.07607
       H    -4.94628   16.27507   -5.41225
       O    -5.44083   17.08101   -5.58590
      H1    -5.72579   17.42390   -4.71867
       H   -14.42540   16.87355  -11.65640
       O   -14.37137   16.23953  -10.89331
      H1   -14.98099   15.55655  -11.18238
       H    -4.86592   11.82561   -4.60271
       O    -5.28629   12.70064   -4.83482
      H1    -6.14187   12.48553   -5.18601
       H    -7.27886   18.52233   -7.67443
       O    -6.94828   19.09350   -8.33454
      H1    -6.46936   18.41262   -8.86095
       H    -9.80955   12.77908   -0.45940
       O   -10.07834   13.69982   -0.44937
      H1    -9.70189   14.04498   -1.28691
       H   -11.37166   12.59150   -4.02886
       O   -11.58916   13.44730   -3.62156
      H1   -12.28238   13.30810   -2.97033
       H   -10.56830   17.67899   -3.15639
       O   -10.73773   17.59546   -2.18542
      H1   -10.48852   18.50956   -1.89714
       H    -8.11674   16.26849   -7.23282
       O    -7.97320   17.10508   -6.75611
      H1    -7.19260   16.89873   -6.26489
       H   -14.37531   16.41500   -6.92259
       O   -13.93125   16.47116   -6.06651
      H1   -13.40345   15.64805   -5.94052
       H    -9.76864   11.10563   -7.38421
       O    -9.73931   12.04445   -7.02428
      H1   -10.52886   12.46407   -7.30866
       H   -15.67484   19.29764   -9.35312
       O   -15.83684   19.40999   -8.40061
      H1   -15.01127   19.75272   -7.99363
       H   -11.87674   13.79943   -8.42104
       O   -11.83659   13.79615   -7.45530
      H1   -11.47179   14.66156   -7.13695
       H    -6.04035   12.91378   -3.15598
       O    -6.55956   12.97148   -2.32405
      H1    -6.06557   13.56690   -1.77731
       H   -16.66711   17.98490   -5.31021
       O   -15.82932   18.08271   -4.88268
      H1   -15.18777   17.39449   -5.25640
       H    -4.98394   17.19093   -2.65928
       O    -5.87346   17.44813   -2.92675
      H1    -6.59594   17.02319   -2.47367
       H   -16.11519   17.40126   -8.22661
       O   -15.72913   16.51950   -8.42214
      H1   -15.49670   16.56756   -9.33744
       H    -7.70698   14.18291   -8.84046
       O    -7.97746   14.29909   -7.89620
      H1    -8.53661   13.47346   -7.80286
       H   -11.76524   13.43767   -0.17606
       O   -12.68209   13.15871   -0.04215
      H1   -13.16639   13.98777   -0.15965
       H   -16.56761   19.64936   -3.25680
       O   -17.50860   19.88445   -3.14403
      H1   -17.94462   19.24108   -2.48348
       H    -3.23139   19.70214   -6.50373
       O    -3.47613   18.77171   -6.72070
      H1    -4.32391   18.63388   -6.26005
       H    -7.73457   17.07643    0.17940
       O    -7.62354   17.09591    1.20265
      H1    -8.13188   17.85826    1.53033
       H   -10.93949   20.04586  -11.27821
       O   -11.15229   19.60966  -10.43042
      H1   -10.72142   18.69713  -10.39335
       H    -9.91043   15.45948  -11.88164
       O    -9.44244   15.04863  -11.19623
      H1    -9.30784   15.74056  -10.53922
       H    -4.02722   13.89777   -5.38086
       O    -3.72567   14.79750   -5.71729
      H1    -2.77218   14.88400   -5.44637
       H   -10.93430   11.35820   -5.74619
       O   -11.57594   11.09570   -5.09338
      H1   -11.19298   10.22163   -4.85333
       H    -4.75313   16.46556   -9.17912
       O    -5.22716   17.11032   -9.71294
      H1    -4.62014   17.86529   -9.71440
       H    -3.76922   20.02431   -9.61566
       O    -3.42913   19.12584   -9.40636
      H1    -3.56934   19.12932   -8.43532
       H    -9.41182   13.73265   -3.44467
       O    -8.85154   14.20447   -2.80248
      H1    -7.94897   13.76265   -2.79442
       H    -9.60519   14.69766    0.90708
       O    -9.61813   15.20677    1.70326
      H1    -8.77657   15.71482    1.78184

