132
frame 10 | Written by MDAnalysis XYZWriter (release 2.4.3)
       H    18.78852  -11.57797   13.28293
       O    18.89079  -11.73955   12.36956
      H1    18.75036  -12.71526   12.32879
       H    17.29127   -1.62094   13.03386
       O    16.48247   -1.24973   13.38225
      H1    16.68308   -0.51520   13.97548
       H    15.36355  -11.92258   12.60677
       O    15.40353  -12.52378   13.43796
      H1    14.97833  -12.02838   14.12761
       H    12.71716   -7.17146   10.13162
       O    11.86248   -6.74941   10.26733
      H1    11.90189   -6.31551   11.14722
       H    14.27511   -7.86987    4.04253
       O    13.49752   -7.59097    3.67813
      H1    13.77352   -7.03574    2.92077
       H    18.92232   -3.34898   12.21279
       O    18.82348   -2.37641   12.23113
      H1    19.68086   -2.07187   12.47089
       H    14.98249   -8.27340    9.83538
       O    14.18061   -8.10405    9.29880
      H1    14.38042   -7.23885    8.90640
       H    17.15482  -10.62741    2.81767
       O    16.87492  -10.89734    3.69692
      H1    16.54269  -10.12183    4.12993
       H    19.02931  -13.63803    8.52942
       O    18.35179  -13.49263    7.91889
      H1    18.84073  -13.44780    7.05734
       H    15.62342  -13.59203    5.71060
       O    15.92275  -13.57829    4.75328
      H1    16.19968  -12.65120    4.60866
       H    11.30452   -8.99108    6.27005
       O    11.52517   -9.90820    6.15563
      H1    12.43169   -9.91136    6.46669
       H    17.39152  -11.87776   11.52051
       O    16.69732  -11.92685   10.85670
      H1    17.03872  -11.69317   10.00103
       H    14.73100  -11.86829   10.29486
       O    14.11547  -12.17570    9.61187
      H1    13.18841  -12.10324    9.97764
       H    18.18360   -4.74727    7.25292
       O    17.46715   -4.24880    6.90154
      H1    17.00374   -4.09797    7.73127
       H    16.00750   -1.20245   11.61723
       O    15.83744   -1.26369   10.67444
      H1    15.99894   -2.21812   10.44386
       H    19.91215  -15.53209    9.61658
       O    19.80285  -15.25507   10.54301
      H1    18.85986  -15.17253   10.66819
       H    16.87858   -8.66624    5.18131
       O    15.88744   -8.65015    5.25816
      H1    15.67324   -9.39615    5.85870
       H    14.14174   -9.60576    7.88271
       O    13.87430  -10.33607    7.27942
      H1    13.66832  -11.05537    7.87989
       H    15.92890   -3.65538    4.50589
       O    16.41916   -4.46278    4.51031
      H1    17.03805   -4.45679    5.23452
       H    13.88013   -2.58889    7.50986
       O    13.88603   -3.28795    6.83058
      H1    13.97076   -2.77595    6.01432
       H    19.00466  -10.36814   15.43204
       O    18.19317  -10.69259   14.93618
      H1    17.84074   -9.93026   14.45898
       H    15.54369   -4.32603    9.50002
       O    16.31714   -3.75512    9.33623
      H1    16.97369   -3.99304   10.04987
       H    18.98631   -2.19634    9.70916
       O    19.50719   -2.21285    8.92297
      H1    18.83436   -2.07937    8.21481
       H    19.31268   -4.75222    3.80706
       O    18.62706   -5.36582    3.41536
      H1    17.74840   -4.96351    3.65995
       H    18.51053  -11.15418    4.93654
       O    19.15177  -11.35396    5.67059
      H1    18.69956  -11.07703    6.44102
       H    14.33146   -5.06638    7.51633
       O    14.77147   -5.83751    7.92674
      H1    15.46804   -5.98447    7.29999
       H    14.40632  -13.56157    8.02921
       O    14.65396  -13.84851    7.10312
      H1    14.48253  -14.76997    6.97298
       H    18.85013   -3.65488   15.02631
       O    18.00725   -4.08956   14.89718
      H1    17.33281   -3.48346   14.59807
       H    15.52505   -6.83372   11.96686
       O    14.59079   -6.53815   11.88395
      H1    14.52954   -5.80060   12.47413
       H    17.96053   -2.70004    6.54249
       O    18.41422   -1.84306    6.40511
      H1    19.17766   -1.96539    5.79513
       H    13.53169   -9.80584   12.76955
       O    13.74446  -10.20424   11.91872
      H1    13.69055   -9.44461   11.30511
       H    19.16042   -8.42832    3.33219
       O    18.63809   -7.97697    4.05636
      H1    18.55563   -7.05540    3.74929
       H    16.68450  -13.54095   12.80833
       O    17.22534  -14.35284   12.53418
      H1    16.85759  -14.72820   11.75247
       H    19.29404   -5.57838    9.51315
       O    19.65374   -5.07362    8.77324
      H1    19.63386   -4.15527    8.98575
       H    17.54094   -7.88775   14.05926
       O    16.83959   -8.55264   13.92864
      H1    16.19677   -8.29064   14.60491
       H    15.98948   -6.84234   15.75304
       O    16.86077   -6.41327   15.82767
      H1    16.97052   -5.66898   15.14879
       H    17.82403   -5.52380   11.90158
       O    17.23001   -4.75915   11.72224
      H1    16.56698   -4.63353   12.42372
       H    17.94633  -11.67794    8.03424
       O    17.81383  -10.72668    8.17769
      H1    18.69640  -10.39894    8.37101
       H    18.89365   -5.96061   14.03966
       O    19.24009   -6.56688   13.38362
      H1    20.13389   -6.70811   13.69065
       H    16.05401  -14.65723    9.50955
       O    16.56992  -15.25866   10.03319
      H1    15.99700  -16.06388    9.87254
       H    14.46328   -3.90778   14.35942
       O    15.11762   -3.71545   13.63357
      H1    15.50023   -2.84327   13.71682
       H    12.31744   -3.84363   11.59786
       O    13.25691   -3.46035   11.34631
      H1    13.76647   -3.54036   12.15785
       H    16.18399   -9.11457   11.30034
       O    16.46612   -8.78180   10.41235
      H1    16.86708   -9.53514   10.05282
       H    19.09674   -7.89690    9.48109
       O    19.04944   -7.44066   10.39302
      H1    18.14656   -7.62099   10.65348

