132
frame 0 | Written by MDAnalysis XYZWriter (release 2.4.3)
       H    -7.39464   -8.69981  -16.54436
       O    -7.44619   -9.49237  -17.10123
      H1    -7.50155   -9.28217  -18.03562
       H   -12.80534  -12.62668  -17.59042
       O   -12.20955  -12.43963  -16.83394
      H1   -11.66190  -13.21151  -16.78660
       H    -9.80908  -15.11419  -16.89010
       O   -10.47930  -14.44265  -16.64703
      H1   -10.06904  -13.89852  -15.92131
       H    -9.27032   -4.90428  -16.13225
       O    -9.67784   -5.74857  -15.75865
      H1   -10.05410   -6.13720  -16.57285
       H    -7.34822   -3.17396  -16.59560
       O    -8.26755   -3.51755  -16.86942
      H1    -8.87137   -2.82512  -16.60224
       H   -17.57379   -5.37469  -15.47937
       O   -18.50908   -5.25642  -15.33270
      H1   -18.71736   -5.94351  -14.65103
       H   -12.70572  -11.35351  -13.17200
       O   -11.75836  -11.33279  -12.94533
      H1   -11.27648  -11.76631  -13.62665
       H   -14.68351  -14.71921  -17.50512
       O   -14.88897  -15.36227  -18.20644
      H1   -13.96624  -15.51250  -18.58490
       H   -11.09754   -5.47867  -18.24813
       O   -11.04102   -6.43415  -18.00453
      H1   -11.06439   -6.95522  -18.87354
       H   -11.78535  -16.07927  -13.83678
       O   -10.85621  -15.76924  -14.04441
      H1   -10.91510  -15.38874  -14.92908
       H   -16.53992  -11.97378  -16.54299
       O   -16.67010  -12.95616  -16.36861
      H1   -16.91560  -12.88021  -15.42328
       H    -4.52783   -9.46897  -16.08652
       O    -4.89256  -10.01365  -16.79549
      H1    -5.83622   -9.74599  -16.92451
       H   -13.88102   -8.32380  -15.59420
       O   -14.43979   -8.58008  -14.83865
      H1   -15.39275   -8.58165  -15.10214
       H   -15.73432   -6.62969  -17.51190
       O   -16.74803   -6.62208  -17.45800
      H1   -17.01367   -7.15797  -18.21334
       H    -9.08934  -12.58334  -14.48933
       O    -9.99248  -12.45181  -14.81109
      H1    -9.91149  -11.83048  -15.54537
       H   -12.64960  -10.43489  -16.89672
       O   -12.42372   -9.49220  -16.89258
      H1   -11.52197   -9.38879  -16.52810
       H   -16.68443   -8.18729  -11.99654
       O   -17.10445   -8.96083  -11.57036
      H1   -17.54511   -8.71060  -10.74512
       H   -14.57345  -10.24522  -13.87781
       O   -14.51235  -11.00493  -13.36812
      H1   -14.84235  -10.70501  -12.52801
       H   -12.25954   -6.10441  -13.77433
       O   -11.92679   -5.26005  -14.11870
      H1   -11.18589   -5.51863  -14.68227
       H   -11.35612  -15.62506  -18.59649
       O   -12.28456  -15.95565  -18.52193
      H1   -12.52029  -16.05681  -17.59882
       H   -18.21880   -9.03170  -18.77412
       O   -18.85473   -8.85964  -18.04655
      H1   -19.06303   -9.71944  -17.71067
       H   -11.55335   -7.40333  -10.38683
       O   -10.90489   -6.93453  -10.93831
      H1   -11.43087   -6.91588  -11.79564
       H   -16.24392  -10.58661  -18.35773
       O   -15.70800  -10.50398  -17.55612
      H1   -16.15941   -9.89480  -16.94382
       H   -14.96111   -5.59032  -15.75040
       O   -15.52802   -5.28641  -15.06091
      H1   -15.71564   -6.10241  -14.53796
       H   -11.24864   -2.11642  -13.08108
       O   -10.78148   -2.90664  -13.40928
      H1   -11.36759   -3.69126  -13.33780
       H   -19.55713   -9.67328  -13.94724
       O   -19.40528   -9.55623  -14.89483
      H1   -19.63289   -8.60749  -15.06548
       H   -13.84562   -3.49723  -17.31915
       O   -14.35039   -3.76355  -18.09472
      H1   -15.18273   -3.31185  -18.13991
       H   -13.58254  -13.51466  -16.07343
       O   -14.36314  -14.03441  -15.77087
      H1   -15.13981  -13.48846  -15.98728
       H    -6.60237   -6.55864  -17.15682
       O    -7.05235   -6.83446  -16.35440
      H1    -7.83549   -6.22314  -16.21393
       H    -6.42681  -12.78148  -18.55057
       O    -6.93788  -12.52036  -17.78322
      H1    -6.43447  -11.86755  -17.30276
       H   -14.07814   -5.31646  -17.52894
       O   -13.94830   -6.20682  -17.03247
      H1   -13.02499   -6.48979  -17.14710
       H   -13.48430   -7.89990  -13.46687
       O   -12.68594   -7.63919  -12.97296
      H1   -12.01231   -8.31927  -13.24322
       H   -14.85681   -1.49573  -15.93472
       O   -15.05548   -2.13288  -15.19493
      H1   -15.35669   -2.97877  -15.52944
       H   -15.01225  -12.73579  -13.25090
       O   -15.39180  -13.61549  -13.37361
      H1   -15.02891  -13.94436  -14.24585
       H   -17.88849   -3.37897  -18.21699
       O   -16.96724   -3.74714  -18.14035
      H1   -16.99579   -4.69568  -18.18781
       H   -17.72018   -6.58382  -12.59719
       O   -16.75529   -6.48259  -12.44710
      H1   -16.57402   -5.68082  -11.90890
       H   -17.37699  -10.80817  -14.30575
       O   -17.71014  -11.72947  -14.07901
      H1   -17.43304  -11.92009  -13.15127
       H   -13.55267   -2.82781  -15.56260
       O   -12.82306   -3.33942  -15.84866
      H1   -12.72641   -4.11126  -15.24546
       H   -10.40646   -1.50412  -17.19963
       O   -10.35702   -1.86635  -16.25815
      H1   -11.14635   -2.42435  -16.11834
       H   -14.58098   -9.68464  -18.54590
       O   -14.07397   -9.13497  -19.13266
      H1   -13.24528   -9.05261  -18.71684
       H   -18.00026   -9.13913  -15.50643
       O   -17.08306   -8.77425  -15.67920
      H1   -17.27596   -7.95385  -16.22365
       H    -7.53685   -5.53894  -12.59076
       O    -7.38932   -6.21038  -13.29618
      H1    -8.21426   -6.24398  -13.77370
       H    -8.72359  -11.86971  -17.80307
       O    -9.53270  -11.33109  -17.79652
      H1    -9.24343  -10.55807  -17.39018
       H   -10.88548   -9.92870  -13.46711
       O   -10.40507   -9.19082  -13.88144
      H1    -9.61824   -9.06891  -13.26755

