132
frame 7 | Written by MDAnalysis XYZWriter (release 2.4.3)
       H     6.89791   -7.98032  -12.67229
       O     6.52469   -8.86806  -12.60347
      H1     7.22707   -9.47098  -12.83459
       H     3.62646   -5.37751   -6.33359
       O     3.23838   -4.47882   -6.41579
      H1     3.22577   -4.45430   -7.37656
       H     6.38715   -5.74717  -13.33392
       O     7.06796   -6.14598  -12.74949
      H1     7.24211   -5.65549  -11.97129
       H     5.21026   -2.28738   -2.43355
       O     4.66374   -2.76986   -3.01929
      H1     4.87942   -3.73932   -2.96648
       H    10.82924   -9.41084  -11.52848
       O    10.88495   -8.47792  -11.33913
      H1    11.14398   -8.14492  -12.21054
       H    11.86225   -7.86393  -10.11044
       O    12.52101   -7.59132   -9.47898
      H1    13.31823   -8.16771   -9.57655
       H     6.70921   -9.25332  -10.98206
       O     6.87678   -9.24334  -10.00357
      H1     7.47202   -8.57603   -9.71665
       H     3.56892   -4.82522  -10.93477
       O     3.07028   -5.22506  -11.69614
      H1     2.28615   -5.60182  -11.18664
       H    12.54285   -1.62950   -9.16042
       O    11.74124   -1.62987   -8.54387
      H1    10.95200   -1.37703   -9.04714
       H     2.58533   -9.85028   -9.38249
       O     2.46860   -8.94678   -9.68156
      H1     3.27682   -8.47225   -9.39640
       H     0.92536   -6.97132  -10.94675
       O     0.95471   -6.22917  -10.33240
      H1     1.27201   -6.53962   -9.50034
       H     4.76086   -3.25499   -9.66582
       O     3.87003   -3.62894   -9.51536
      H1     3.26511   -2.93371   -9.20683
       H     8.23070    1.00080   -6.30727
       O     7.44083    0.78635   -6.79649
      H1     7.49674    1.51035   -7.47647
       H     5.04201    0.34617   -8.94900
       O     5.45303    0.55183   -9.79010
      H1     4.76011    0.99849  -10.28309
       H     7.03930   -5.24659   -8.49438
       O     6.25729   -5.32155   -7.95855
      H1     5.82920   -4.49441   -8.05699
       H    11.22860   -4.50157   -9.22630
       O    10.67871   -4.51585  -10.01970
      H1    11.11897   -3.95864  -10.60157
       H     6.62400   -3.22540  -14.16933
       O     7.38841   -2.66864  -14.35857
      H1     6.99605   -1.92936  -14.78230
       H     8.34786   -7.22600   -5.66809
       O     9.22559   -7.64845   -5.80753
      H1     9.11942   -7.97485   -6.71030
       H     6.80752   -2.43770   -9.13653
       O     6.40349   -2.92848   -9.89488
      H1     6.57909   -2.33935  -10.67271
       H     4.33402   -8.08960   -5.56998
       O     3.56817   -7.44567   -5.58015
      H1     2.96458   -7.86358   -6.24378
       H     2.84746   -2.02107  -11.81559
       O     3.33617   -2.64180  -12.38923
      H1     3.00043   -3.53539  -12.22128
       H     6.67535   -2.70601   -5.08700
       O     7.58697   -2.92956   -4.77228
      H1     7.81585   -2.26732   -4.09848
       H     9.27260   -8.01892   -8.85436
       O     8.49442   -7.48893   -8.82051
      H1     8.45199   -6.94994   -9.57348
       H     3.96178   -6.08631   -3.25273
       O     4.79570   -5.57968   -3.29580
      H1     5.29666   -5.89036   -4.05599
       H     9.50097   -4.08934   -3.61877
       O    10.43502   -4.34729   -3.57977
      H1    10.82800   -4.20175   -2.77650
       H     8.53866   -0.94818   -8.75412
       O     9.12044   -0.59842   -9.45739
      H1     8.60747   -0.88521  -10.22503
       H     6.93377  -11.43758   -7.63727
       O     7.35869  -10.53816   -7.67407
      H1     7.24299  -10.09609   -8.56092
       H     7.55084   -0.84442   -7.21365
       O     7.66206   -1.71413   -7.59846
      H1     8.37363   -2.09182   -7.05047
       H    11.52504   -4.64258   -7.09017
       O    11.97450   -4.11755   -7.80834
      H1    11.84229   -3.15737   -7.81394
       H     3.40308   -6.63749  -12.93573
       O     3.66373   -7.36068  -13.52582
      H1     4.11543   -7.92104  -12.94281
       H     4.42462   -3.68741  -13.81686
       O     5.17730   -4.30292  -14.03298
      H1     4.91692   -4.83396  -14.81259
       H     4.82778   -3.26621   -5.72646
       O     5.13497   -2.32837   -5.70396
      H1     4.90677   -1.99732   -4.78560
       H    10.18138   -6.54371  -13.92148
       O     9.46878   -6.17070  -14.51110
      H1     8.62325   -6.28150  -14.03456
       H    11.53049   -8.50678   -8.00418
       O    10.61821   -8.81384   -7.75920
      H1    10.63623   -9.23299   -6.83778
       H     6.72044   -0.37301  -11.81457
       O     7.28167   -1.15353  -11.71320
      H1     7.23138   -1.67915  -12.47016
       H    11.00092   -5.49678   -5.00769
       O    11.33796   -5.83100   -5.81980
      H1    10.68728   -6.53231   -6.17384
       H     8.91728   -4.95126  -10.27137
       O     7.94776   -5.25195  -10.26143
      H1     7.38898   -4.45737  -10.14148
       H     6.38029   -9.81032   -6.42192
       O     5.69253   -9.69966   -5.76448
      H1     6.19950   -9.41806   -5.02471
       H     6.39300   -7.47346   -3.25833
       O     6.41299   -8.47189   -3.27799
      H1     5.70129   -8.76295   -2.73032
       H     4.85529   -6.57108   -8.93820
       O     4.67756   -7.43092   -9.37193
      H1     5.59644   -7.77574   -9.49221
       H     6.53939   -5.59970   -6.10943
       O     6.79803   -5.73356   -5.22331
      H1     7.30236   -4.90071   -5.10336
       H     4.18035   -0.55511   -6.56363
       O     3.91565    0.00978   -7.26035
      H1     3.68650    0.85591   -6.85332
       H    11.82068   -8.57479   -4.42872
       O    11.11532   -8.26632   -3.80486
      H1    10.43929   -7.88454   -4.35048
       H     2.65014   -0.94292   -8.06501
       O     1.99712   -1.63894   -8.41154
      H1     1.79371   -1.28643   -9.32411

