132
frame 1 | Written by MDAnalysis XYZWriter (release 2.4.3)
       H   -12.08159  -12.22561  -17.45570
       O   -12.29408  -12.78969  -16.65008
      H1   -11.58870  -13.43476  -16.46185
       H   -17.87250  -15.35268  -10.00723
       O   -18.59425  -15.12844  -10.61880
      H1   -18.12349  -14.93501  -11.45536
       H   -17.92353  -11.81824  -11.13272
       O   -17.02416  -11.58981  -11.39609
      H1   -16.92983  -10.65247  -11.12860
       H   -10.28001  -15.62779  -16.35126
       O   -10.71969  -14.86892  -15.98311
      H1    -9.94892  -14.42853  -15.53082
       H   -10.27275  -11.33633  -18.45448
       O   -11.09495  -11.66710  -18.87130
      H1   -11.24947  -11.11215  -19.67364
       H   -17.42920   -5.01921  -14.82294
       O   -18.33622   -5.02192  -15.17895
      H1   -18.83729   -5.56383  -14.56027
       H   -11.29090  -12.17742  -12.82116
       O   -10.29679  -12.06581  -12.65497
      H1    -9.79864  -12.52680  -13.36005
       H   -14.54723  -15.37337  -17.72583
       O   -14.64252  -15.91154  -18.52546
      H1   -13.77300  -16.24110  -18.67439
       H   -13.22333   -8.92572  -10.12056
       O   -13.55032   -9.31295  -10.93684
      H1   -14.50709   -9.35038  -10.90862
       H   -12.49196   -4.31984  -18.67407
       O   -11.84605   -5.04622  -18.60970
      H1   -11.41748   -5.16304  -19.46055
       H   -16.44061  -12.19629  -16.49104
       O   -16.86785  -13.06593  -16.14832
      H1   -17.16071  -12.78368  -15.27687
       H   -13.60537   -9.83835  -14.98532
       O   -14.22969   -9.89116  -14.21820
      H1   -15.00352   -9.41411  -14.49441
       H   -15.57540   -7.75933  -17.60669
       O   -16.41497   -7.39264  -17.40765
      H1   -17.02058   -7.73861  -18.09531
       H   -12.94190  -10.29209  -17.45383
       O   -12.50381   -9.69825  -16.80480
      H1   -11.58258   -9.98625  -16.72526
       H   -16.32512   -8.32063  -11.37954
       O   -16.46734   -9.08956  -10.78156
      H1   -17.28879   -8.94937  -10.32165
       H   -13.54642  -11.12663  -13.32860
       O   -12.99655  -11.58884  -12.70558
      H1   -13.11030  -11.10827  -11.84952
       H   -11.62638   -5.70568  -14.06508
       O   -11.51554   -4.77612  -14.27565
      H1   -10.89125   -4.64398  -15.01836
       H   -19.33848   -7.75851   -9.82223
       O   -18.86003   -8.58371   -9.62326
      H1   -18.54061   -8.52481   -8.72739
       H   -18.90702   -8.64676  -19.80566
       O   -18.60883   -8.44209  -18.89489
      H1   -18.73559   -9.26348  -18.39549
       H   -16.18123  -14.34273  -13.01123
       O   -17.12466  -14.66811  -12.99183
      H1   -17.27677  -15.20374  -13.77299
       H   -11.34048   -7.36675  -10.58112
       O   -11.36279   -6.71286  -11.29198
      H1   -11.56403   -7.12136  -12.10779
       H   -16.05999  -11.11987  -18.07589
       O   -15.87992  -10.70931  -17.22379
      H1   -16.59371  -10.08201  -17.03806
       H   -14.87702   -5.21242  -14.99599
       O   -15.63978   -4.98450  -14.37716
      H1   -15.80094   -5.82375  -13.92597
       H   -13.88761   -2.52301  -17.83776
       O   -13.69141   -3.05863  -18.56527
      H1   -14.26551   -2.98536  -19.27207
       H   -19.29759   -7.75697  -12.67934
       O   -18.76141   -6.96950  -12.95667
      H1   -19.20164   -6.23618  -12.42973
       H   -13.72210  -13.85361  -16.33935
       O   -14.46623  -14.47383  -16.03907
      H1   -15.25363  -13.93724  -16.12230
       H   -18.14479   -2.57392  -15.78863
       O   -18.23729   -2.47947  -16.70992
      H1   -18.64928   -1.59599  -16.76237
       H   -13.90645   -5.03323  -17.08437
       O   -13.89620   -5.66179  -16.36749
      H1   -12.98931   -5.93050  -16.15933
       H   -16.49510  -17.17051  -16.05153
       O   -15.73102  -17.58699  -16.48598
      H1   -15.24002  -16.91882  -16.97419
       H   -12.81604   -8.16652  -13.59649
       O   -12.14765   -7.54343  -13.92396
      H1   -11.41658   -8.13828  -14.11355
       H   -13.77945  -13.22085  -12.85368
       O   -14.32027  -13.94913  -13.25238
      H1   -14.21836  -13.93773  -14.22277
       H   -17.21092   -4.06238  -17.47759
       O   -16.58450   -4.72029  -17.83190
      H1   -16.70660   -5.51462  -17.34271
       H   -17.02442   -7.15142  -12.46960
       O   -16.11410   -7.10504  -12.25362
      H1   -16.12492   -6.31974  -11.67236
       H   -17.89888  -10.62262  -13.62715
       O   -18.49018  -11.40771  -13.62199
      H1   -18.04802  -11.82533  -12.90947
       H   -12.61588   -8.24806  -18.04828
       O   -12.80828   -7.61625  -18.81258
      H1   -12.41158   -6.78254  -18.49120
       H   -18.42725   -9.21121  -15.57052
       O   -17.46620   -9.13888  -15.62956
      H1   -17.10697   -8.30345  -16.10193
       H   -18.35915   -2.18744  -13.24448
       O   -17.92375   -2.56887  -14.01768
      H1   -18.36817   -3.35892  -14.27857
       H   -18.24335  -17.41537  -14.67686
       O   -17.73829  -16.60181  -15.04058
      H1   -18.36905  -16.24637  -15.67214
       H   -19.36883  -11.56991  -17.84427
       O   -18.94174  -11.16298  -18.59281
      H1   -18.10015  -11.65915  -18.63932
       H   -13.98880  -17.31233  -13.12589
       O   -13.55538  -16.77815  -12.40141
      H1   -13.99418  -15.94177  -12.54243
       H   -14.70360  -13.46288  -10.07225
       O   -15.52374  -13.12428   -9.68818
      H1   -15.99615  -12.67411  -10.36113
       H    -8.23721  -11.77535  -17.25863
       O    -9.03716  -11.22390  -17.07967
      H1    -8.81838  -10.32621  -16.69092
       H   -10.32098  -10.41860  -13.59244
       O   -10.06336   -9.58494  -13.93296
      H1    -9.39225   -9.26361  -13.27152
       H   -14.87316   -3.75466  -13.14291
       O   -14.42062   -3.35519  -12.38214
      H1   -13.80533   -4.02809  -12.05360

