132
frame 10 | Written by MDAnalysis XYZWriter (release 2.4.3)
       H   -13.77356  -11.85183    8.50996
       O   -14.00138  -12.13816    7.61833
      H1   -14.46595  -11.36293    7.30582
       H   -12.16761  -12.33249   13.13571
       O   -12.32590  -13.18129   12.62498
      H1   -13.17774  -13.57844   12.89377
       H   -17.64020   -9.81291   11.34148
       O   -17.90594  -10.72062   11.56624
      H1   -18.85614  -10.65774   11.84545
       H   -12.53205   -5.93670   18.61127
       O   -13.40252   -6.26838   18.34940
      H1   -13.92619   -6.19136   19.15405
       H   -12.04533   -9.06249   18.39943
       O   -12.92191   -8.97355   18.83233
      H1   -13.07667   -8.04825   18.65584
       H   -15.10677   -5.74277   14.98851
       O   -14.93403   -4.94273   14.50614
      H1   -14.74874   -4.23385   15.14072
       H   -14.26045   -9.32467   15.33062
       O   -14.48569  -10.30931   15.24904
      H1   -14.41423  -10.60248   16.14897
       H   -13.29001   -7.04346   10.24221
       O   -14.12753   -7.47435   10.00134
      H1   -14.46760   -7.75309   10.82794
       H   -16.14227  -13.87783   18.79609
       O   -16.41666  -13.31456   18.04723
      H1   -15.56556  -12.88803   17.81314
       H   -11.12034  -15.18574   19.89171
       O   -10.80406  -14.51294   19.23564
      H1   -10.66166  -13.63278   19.70900
       H   -10.20287   -8.23842   17.48413
       O   -10.73194   -8.85570   16.93713
      H1   -10.37432   -8.76414   15.99423
       H   -17.19158   -7.59696   10.24639
       O   -17.55064   -8.01587   11.07078
      H1   -18.47052   -7.66298   11.00523
       H   -14.09516  -11.76105   18.69477
       O   -13.94626  -11.93530   17.77505
      H1   -13.24954  -12.55471   17.66365
       H    -8.45741  -10.60800   11.48365
       O    -8.02485  -10.43114   12.28694
      H1    -7.08682  -10.53794   12.06562
       H   -11.18531   -8.92632   11.39509
       O   -11.33347   -9.91144   11.47024
      H1   -12.20623  -10.00956   11.05978
       H   -17.35907  -10.77541   14.17849
       O   -16.89699   -9.93039   14.38011
      H1   -16.10109  -10.26536   14.88913
       H    -7.77454  -11.59687   13.50885
       O    -7.68283  -12.19449   14.35030
      H1    -8.57444  -12.22271   14.69617
       H   -17.17675   -8.34664   13.84365
       O   -17.36035   -7.43617   13.63589
      H1   -17.51348   -7.37780   12.63881
       H   -13.04252  -10.56038   14.14821
       O   -12.18343  -10.83072   13.82938
      H1   -12.00228  -10.30684   13.01917
       H   -11.95835  -14.51941   16.23379
       O   -12.34147  -14.20889   17.08340
      H1   -11.67779  -14.30603   17.77537
       H   -14.86880  -12.41616   12.53832
       O   -15.28485  -11.84138   11.88292
      H1   -16.17268  -11.61161   12.14113
       H   -11.90029  -16.21790   11.42283
       O   -12.03922  -16.74797   12.18983
      H1   -11.81502  -16.19345   12.96996
       H   -15.33770  -14.44315   12.50180
       O   -14.79046  -14.02795   13.17760
      H1   -14.91903  -14.41351   14.04448
       H   -11.09074   -6.63135   10.01234
       O   -11.24111   -7.18058   10.78423
      H1   -11.21003   -6.64854   11.59444
       H   -14.48102  -10.49839   10.62874
       O   -13.80397  -10.34346    9.96281
      H1   -13.73174   -9.37568    9.78436
       H   -10.76510  -11.37052   14.81190
       O   -10.18189  -11.95416   15.32386
      H1   -10.20419  -11.63907   16.26903
       H   -11.48851  -14.30004   13.83236
       O   -11.46161  -15.03783   14.42844
      H1   -10.50228  -15.09804   14.62759
       H    -6.18278   -9.41423   14.71356
       O    -6.68530   -9.00883   15.40605
      H1    -7.60614   -9.04166   15.05714
       H   -16.14383   -8.76429   18.80474
       O   -15.81295   -9.47554   18.23015
      H1   -14.84093   -9.51200   18.39349
       H   -13.96723   -6.87925   16.76595
       O   -14.56600   -7.20597   16.09236
      H1   -15.22940   -7.78658   16.54104
       H   -10.70469  -14.36852   10.05966
       O   -10.61770  -13.44026   10.41403
      H1   -11.29178  -13.34234   11.12611
       H   -16.79005   -6.27173   17.15384
       O   -17.45061   -6.15560   17.81800
      H1   -18.27941   -6.57684   17.62063
       H   -12.14647   -4.57336   12.86470
       O   -11.77753   -3.67679   13.06383
      H1   -11.09160   -3.37908   12.46678
       H   -13.52166  -16.83878   15.51478
       O   -13.21464  -17.72276   15.80414
      H1   -12.35263  -17.72067   16.28422
       H   -17.36974  -12.73489    8.84519
       O   -18.00676  -12.10726    9.16119
      H1   -17.79177  -11.97920   10.11734
       H   -17.08943  -14.92570   17.39736
       O   -16.91801  -15.84898   17.20088
      H1   -17.63113  -16.20368   16.67554
       H    -9.20760   -7.35957   13.85685
       O    -9.16051   -8.30849   14.09757
      H1    -8.76781   -8.83901   13.36992
       H   -17.31451  -10.51477   18.36198
       O   -18.03208  -11.16938   18.38410
      H1   -17.51278  -12.00261   18.33067
       H   -18.60768  -10.43059   16.81371
       O   -19.05565   -9.85940   16.17303
      H1   -18.33558   -9.59128   15.51210
       H    -9.94606  -10.50161   17.43550
       O    -9.49767  -11.22615   17.87506
      H1    -8.57714  -11.32868   17.59865
       H   -17.47414  -14.80912   11.13111
       O   -16.53623  -14.97919   11.31365
      H1   -16.55915  -15.85959   11.72187
       H   -13.00856   -7.05026   12.80824
       O   -12.93792   -6.17163   13.10885
      H1   -13.62206   -6.00450   13.80661
       H   -13.81524  -14.76574   16.20848
       O   -14.55326  -15.14335   15.65021
      H1   -15.19057  -15.48486   16.24782
       H   -15.30043   -8.38608   12.83355
       O   -14.41740   -8.79962   12.65153
      H1   -14.57510   -9.75655   12.65847

