132
frame 1 | Written by MDAnalysis XYZWriter (release 2.4.3)
       H   -10.96462  -15.81216   -6.82815
       O   -10.37521  -15.99406   -7.58092
      H1   -10.26660  -16.94058   -7.71904
       H   -10.30454  -16.75407   -3.08559
       O    -9.79082  -16.09313   -3.54021
      H1    -9.23254  -16.58027   -4.13379
       H    -7.75662  -10.82828  -11.15854
       O    -7.26414  -10.40279  -11.90134
      H1    -6.43500  -10.11214  -11.51392
       H   -10.70132  -14.88515  -11.99140
       O   -10.78020  -14.48593  -11.13108
      H1    -9.88088  -14.21587  -10.97041
       H   -11.29090  -12.17742  -12.82116
       O   -10.29679  -12.06581  -12.65497
      H1    -9.79864  -12.52680  -13.36005
       H   -13.29253  -16.92468   -8.90438
       O   -13.90471  -16.50519   -8.29493
      H1   -13.75289  -15.54631   -8.41680
       H   -13.22333   -8.92572  -10.12056
       O   -13.55032   -9.31295  -10.93684
      H1   -14.50709   -9.35038  -10.90862
       H    -9.60395   -7.32784   -5.42494
       O    -9.36147   -7.52429   -4.48841
      H1    -9.80267   -6.77428   -4.03698
       H   -10.96144  -11.92162   -8.15726
       O   -10.24313  -11.90621   -7.43069
      H1    -9.99340  -12.82459   -7.33594
       H    -9.31165  -14.95819   -6.62816
       O    -9.19620  -14.00844   -6.30780
      H1    -8.31890  -13.76317   -6.50500
       H    -8.46994  -18.48667   -5.68827
       O    -8.21737  -17.55885   -5.45394
      H1    -8.03729  -17.22027   -6.32795
       H    -6.05429  -15.39275   -6.59275
       O    -6.75469  -15.88996   -7.07380
      H1    -7.06842  -15.38719   -7.83971
       H   -13.54642  -11.12663  -13.32860
       O   -12.99655  -11.58884  -12.70558
      H1   -13.11030  -11.10827  -11.84952
       H   -12.29986   -8.81803   -8.26862
       O   -12.01853   -8.09762   -8.82727
      H1   -12.85365   -7.69739   -9.03276
       H   -10.09678   -6.38940   -7.48836
       O   -10.16863   -7.27493   -7.12449
      H1   -10.75027   -7.72372   -7.72062
       H   -11.34048   -7.36675  -10.58112
       O   -11.36279   -6.71286  -11.29198
      H1   -11.56403   -7.12136  -12.10779
       H   -16.12906   -8.00193   -5.89860
       O   -15.16348   -7.98481   -5.84278
      H1   -14.99802   -8.12336   -6.80581
       H    -8.39833   -7.35617  -10.74560
       O    -8.41768   -6.89411   -9.90980
      H1    -7.49363   -7.08596   -9.57577
       H   -13.17865  -10.23356   -5.03153
       O   -13.78942   -9.80580   -4.37821
      H1   -14.40095   -9.32976   -4.98586
       H    -9.29544  -14.78292   -2.24378
       O    -8.83951  -14.04605   -1.86838
      H1    -9.39548  -13.62825   -1.24839
       H    -4.51543  -13.98107   -6.20418
       O    -4.72407  -14.79919   -5.74320
      H1    -5.37810  -14.65449   -5.05748
       H    -5.18257  -13.36725  -10.00182
       O    -4.44695  -12.74206  -10.01118
      H1    -4.34002  -12.64227   -9.08393
       H   -12.87482   -8.30097   -4.20673
       O   -12.39657   -7.51461   -3.87393
      H1   -11.48978   -7.65961   -4.14584
       H    -7.62846   -7.41833   -3.97787
       O    -6.70811   -7.23788   -3.90299
      H1    -6.26276   -7.50153   -4.71837
       H    -8.49435  -10.96692   -5.28356
       O    -7.48502  -10.98791   -5.43312
      H1    -7.22310  -11.43136   -4.61946
       H    -5.33461   -7.39773   -7.15770
       O    -5.58278   -7.79520   -6.29419
      H1    -5.77181   -8.73498   -6.57994
       H   -11.30295  -11.27034  -10.46654
       O   -11.83316  -11.41370   -9.63993
      H1   -12.24643  -12.29045   -9.88786
       H    -3.92378  -12.07630   -6.61925
       O    -4.56351  -12.55763   -7.21319
      H1    -5.22666  -11.86501   -7.25616
       H    -6.77886  -14.23467   -3.14589
       O    -6.34772  -14.95531   -3.62145
      H1    -5.50246  -15.10559   -3.09965
       H    -8.76027  -10.96994   -2.41040
       O    -9.24092  -10.18267   -2.36319
      H1    -8.94223   -9.56443   -3.03808
       H    -7.80233  -12.81260   -2.38014
       O    -7.26305  -12.20294   -2.95632
      H1    -6.54014  -12.04630   -2.34813
       H   -14.99616  -11.90146   -5.48087
       O   -15.48612  -12.74537   -5.41186
      H1   -16.32954  -12.37819   -4.99833
       H    -7.60878  -15.02584  -10.01821
       O    -8.14391  -14.94648   -9.25674
      H1    -8.93575  -15.48783   -9.42491
       H   -12.33640  -11.51576   -3.02902
       O   -11.83145  -12.22892   -3.39775
      H1   -11.03109  -11.79485   -3.63474
       H   -12.26082  -14.88123   -5.49141
       O   -11.97040  -15.80265   -5.21205
      H1   -11.08223  -15.72888   -4.86806
       H   -12.86007  -10.46520   -8.06726
       O   -13.33947  -10.11366   -7.30588
      H1   -14.25000  -10.24493   -7.50637
       H   -15.62848  -11.71640   -8.65725
       O   -15.84788  -10.88061   -8.26639
      H1   -16.71699  -11.00552   -7.87795
       H    -6.88186  -10.35519   -6.99233
       O    -6.22254  -10.16290   -7.75567
      H1    -6.78070  -10.33428   -8.51948
       H   -14.70360  -13.46288  -10.07225
       O   -15.52374  -13.12428   -9.68818
      H1   -15.99615  -12.67411  -10.36113
       H   -10.48990   -9.35320   -5.43740
       O   -10.52455  -10.28530   -5.14138
      H1   -10.49140  -10.81039   -5.94977
       H    -7.95744  -12.53134   -9.44901
       O    -7.89404  -11.54953   -9.47909
      H1    -8.58685  -11.21854   -8.85680
       H   -12.11108  -14.49722   -9.33589
       O   -12.83352  -13.99767   -8.95867
      H1   -12.70756  -13.85267   -8.03253
       H   -12.27860  -13.91774   -2.72262
       O   -12.59414  -14.67709   -2.25506
      H1   -12.32351  -15.47956   -2.70225
       H   -13.89300  -13.38030   -5.98914
       O   -12.89909  -13.47148   -6.22678
      H1   -12.47246  -12.81150   -5.60754

