132
frame 8 | Written by MDAnalysis XYZWriter (release 2.4.3)
       H    -3.66345    4.37638   12.45404
       O    -3.08795    3.76184   11.98169
      H1    -3.33645    2.91373   12.36366
       H    -7.76121    1.57997   11.28663
       O    -7.00808    1.09820   11.56825
      H1    -6.55517    1.71369   12.13991
       H   -12.48001    1.62872   17.94112
       O   -11.67384    1.93565   17.51056
      H1   -11.00243    1.95235   18.16984
       H    -1.36021    3.25029   14.03932
       O    -1.47869    3.30097   15.01043
      H1    -0.62248    3.05600   15.40864
       H    -3.96300    3.08313   17.50799
       O    -3.26993    3.80909   17.45883
      H1    -2.93636    3.74411   16.56314
       H     3.28484    5.74827   19.00398
       O     2.94444    5.76161   19.92633
      H1     3.02963    6.68540   20.15395
       H    -1.77607   -0.22185   12.19592
       O    -2.22430   -0.53440   12.96560
      H1    -2.18228    0.10830   13.67708
       H     0.19437   10.28440   20.05065
       O     0.08823   11.24957   19.92809
      H1    -0.07428   11.25925   18.96077
       H    -3.52806   12.82530   18.86203
       O    -3.23661   12.51497   17.97931
      H1    -2.90392   11.62590   18.19596
       H    -7.21267    1.45382   14.89462
       O    -6.83925    2.23575   15.25223
      H1    -7.60158    2.96009   15.19129
       H     0.52557    1.26295   16.35568
       O     0.61559    2.22187   16.58869
      H1     0.17894    2.39185   17.42906
       H    -7.30743   10.86668   18.70158
       O    -7.87696   10.11448   18.87558
      H1    -7.85858   10.04633   19.82664
       H    -9.13252    5.45304   13.24613
       O    -9.71395    5.86714   12.56983
      H1   -10.27467    5.12590   12.21788
       H    -4.68086    6.08843   18.94177
       O    -4.27945    5.28650   19.26501
      H1    -3.99114    4.74799   18.49813
       H    -9.19222    7.66153   17.06236
       O    -9.00879    6.99646   16.35710
      H1    -9.89480    6.98938   15.92231
       H     0.24601   -0.48135   14.43766
       O     0.06853   -0.41917   15.37798
      H1     0.65210   -0.97544   15.87209
       H    -7.14743    7.57300   15.70549
       O    -6.56928    7.46598   14.95878
      H1    -5.89168    8.19163   15.15970
       H   -10.52365    9.54046   17.00748
       O   -10.54801    8.94733   17.79327
      H1    -9.98478    9.40325   18.42297
       H    -4.89954    6.03737   12.17470
       O    -4.91952    5.36119   12.81391
      H1    -4.33611    5.78388   13.46179
       H    -2.09476    6.38301   18.09788
       O    -1.53862    6.84330   17.49706
      H1    -0.77450    7.16653   17.99541
       H    -4.60291    0.21893   18.38798
       O    -4.35019   -0.67827   18.62647
      H1    -3.43459   -0.68147   18.45884
       H    -1.73968    5.07110   15.01520
       O    -2.23882    5.94802   14.97898
      H1    -2.02406    6.44659   15.76762
       H     0.80407    7.10881   16.12401
       O     0.68811    7.63172   15.29722
      H1     1.35125    8.27612   15.34071
       H    -1.53414    3.44555   18.21271
       O    -0.85085    2.89524   18.64474
      H1    -0.46245    3.43321   19.31005
       H     0.84293    4.74207   16.99721
       O     1.65493    5.16829   16.99823
      H1     2.33898    4.51388   17.03116
       H    -7.84135    8.65334   14.16885
       O    -8.28220    9.37663   13.70834
      H1    -7.66194   10.11659   13.61545
       H    -3.14357   11.21100   15.04536
       O    -2.42073   10.57778   14.97915
      H1    -1.78597   10.85333   15.64208
       H    -8.94386    5.06205   15.27005
       O    -8.20476    4.82938   14.69851
      H1    -7.59630    5.55795   14.66621
       H     2.51131    2.71334   16.33576
       O     3.44717    3.01218   16.12103
      H1     3.99656    2.37640   16.65577
       H     1.28486    6.03125   12.41966
       O     1.85413    6.30000   13.09049
      H1     1.36985    6.70311   13.82637
       H    -2.00727    9.28439   18.67151
       O    -2.78725    9.73913   19.05283
      H1    -3.51260    9.15132   18.91072
       H    -6.04705   -2.36469   15.67369
       O    -5.96066   -2.60968   16.59950
      H1    -5.34989   -1.95085   16.98960
       H     0.27819   10.39948   16.17331
       O    -0.37801   10.96084   16.65055
      H1    -0.47533   11.78974   16.21641
       H   -11.89813    3.87254   17.42434
       O   -12.08642    4.69078   18.00211
      H1   -11.33882    4.80448   18.62919
       H    -2.16266    1.66374   15.28855
       O    -2.43105    0.74387   15.30215
      H1    -1.73852    0.25717   15.71058
       H    -1.84818    6.84872   13.43223
       O    -1.94866    7.26549   12.58212
      H1    -1.74146    8.18202   12.80597
       H     2.48386    3.17311   13.46693
       O     1.71487    2.54675   13.39784
      H1     1.01828    3.04528   12.93049
       H    -5.63753    1.86856   18.59911
       O    -5.11574    1.85165   17.78430
      H1    -5.74776    1.67750   17.10873
       H    -4.14663    1.40333   14.08943
       O    -4.70436    1.98287   13.57248
      H1    -5.48767    2.21584   14.16177
       H     0.13109    3.53397   10.99982
       O    -0.31534    3.52867   11.85453
      H1    -1.27175    3.53176   11.70143
       H    -5.06641   12.04855   17.47471
       O    -5.85139   11.78083   16.98431
      H1    -6.53936   12.42376   17.20273
       H    -6.57091    4.84595   17.78399
       O    -7.32960    5.38031   17.99118
      H1    -7.64199    5.71990   17.14939
       H    -4.99974   10.18769   15.56639
       O    -4.64742    9.27289   15.72621
      H1    -3.73045    9.44431   15.52389
       H    -5.01162    8.23218   17.66578
       O    -4.81861    7.99427   18.60793
      H1    -5.57050    8.27597   19.15950

