132
frame 9 | Written by MDAnalysis XYZWriter (release 2.4.3)
       H    -4.42875    5.08003   12.90129
       O    -4.35225    4.24465   12.31208
      H1    -4.29947    3.49098   12.90730
       H    -7.24054    2.00134   11.05425
       O    -6.57676    1.68087   11.64652
      H1    -6.29652    2.40740   12.12155
       H   -10.38409    6.78617   12.81087
       O   -10.67263    7.05388   13.68655
      H1   -11.35445    7.68288   13.62514
       H    -8.90791    8.25889    6.38607
       O    -8.33665    7.55032    6.78540
      H1    -8.98290    7.13344    7.40673
       H   -12.10725    1.40119   12.15945
       O   -12.39145    0.65406   12.70076
      H1   -11.95970    0.76021   13.58342
       H   -11.66572    7.35533    8.55038
       O   -11.38485    6.52437    8.09062
      H1   -11.43112    6.67652    7.12123
       H   -11.21912    2.17554   17.74109
       O   -10.41189    2.24347   17.18650
      H1    -9.72355    1.87620   17.84842
       H   -13.19699   -2.09768   15.13731
       O   -12.25726   -1.79489   15.13784
      H1   -11.78499   -2.53110   14.65423
       H   -13.27521    1.98543    9.50613
       O   -12.60917    2.41759    8.90031
      H1   -12.43081    1.67021    8.29655
       H   -12.58645    4.17829   14.62425
       O   -11.81660    4.42959   14.11817
      H1   -11.76368    5.36349   14.34384
       H    -6.84282   -0.54847    6.80603
       O    -6.40062   -0.06340    6.12605
      H1    -5.56355    0.21898    6.60809
       H   -11.25171    4.06188    6.66020
       O   -10.36166    3.75632    6.47596
      H1    -9.72956    4.14902    7.13550
       H   -14.97152    3.25392   12.50847
       O   -15.40621    3.64934   13.23934
      H1   -15.45954    4.57052   12.96065
       H    -8.72435    8.14993   10.23017
       O    -9.16947    8.84830   10.69178
      H1    -8.69021    8.99721   11.53603
       H   -14.85490    1.34337   11.44352
       O   -14.59710    2.10540   10.96575
      H1   -15.20883    2.05798   10.20889
       H   -12.09556   -0.50478    5.02914
       O   -11.18321   -0.56865    4.71920
      H1   -10.67048   -0.14296    5.45903
       H    -9.03635    2.60330    9.71605
       O    -9.17241    2.04687   10.48478
      H1    -9.90928    2.38358   11.02301
       H    -7.04093    1.56152   14.51669
       O    -6.73254    2.43947   14.96821
      H1    -7.39447    3.03046   15.13052
       H    -9.26263    4.84042   12.67016
       O    -9.88266    5.12762   11.95758
      H1   -10.33842    4.36579   11.64457
       H   -12.73003   -0.87640   11.57476
       O   -12.78416   -1.58696   10.89801
      H1   -13.64645   -1.47252   10.48721
       H   -15.24959   -0.91887   12.21113
       O   -15.03628   -0.13337   12.68846
      H1   -14.03540    0.00306   12.80271
       H    -6.90824    1.72546    5.71695
       O    -6.93684    2.55895    5.16975
      H1    -6.20903    3.22892    5.39470
       H    -8.31218    4.83465    9.00040
       O    -8.26470    3.99027    8.51486
      H1    -7.53718    4.06753    7.94813
       H   -10.04994    1.61384    6.65097
       O    -9.89457    0.71234    6.85164
      H1   -10.13430    0.64555    7.81312
       H   -11.96064   -0.49430    7.81122
       O   -12.83267   -0.02484    7.71891
      H1   -13.20180   -0.22890    6.89436
       H    -5.52973    4.50961    8.28758
       O    -5.63373    5.27881    7.70540
      H1    -5.29696    5.05477    6.81190
       H   -14.10629   -0.46956    8.66187
       O   -14.93677   -0.82724    9.08971
      H1   -15.08043   -1.58707    8.52948
       H   -12.22032    3.36255   11.24859
       O   -11.46325    2.99688   11.68894
      H1   -11.51917    3.24472   12.61094
       H    -5.85082   -2.14883   13.33791
       O    -6.25166   -2.18894   14.18630
      H1    -6.98024   -1.57766   14.20639
       H    -5.65442    6.30380   11.84132
       O    -6.54498    6.34229   12.23132
      H1    -6.42405    6.58382   13.20356
       H    -5.70739   -1.14785    9.69227
       O    -4.73872   -1.26763    9.62638
      H1    -4.43874   -1.45418   10.49456
       H   -11.65015   -4.73871   13.57314
       O   -11.16209   -3.89654   13.74192
      H1   -10.73972   -3.58275   12.94705
       H    -9.92226    4.38305   14.85720
       O    -9.04356    4.48515   15.16595
      H1    -9.07461    5.23896   15.73949
       H    -9.00312    5.99149   10.67510
       O    -8.47819    6.32316    9.89424
      H1    -7.53869    6.14023   10.22682
       H    -8.73105   -1.78262    7.94774
       O    -7.86174   -1.47572    8.15006
      H1    -7.39719   -2.37110    8.22199
       H    -7.12142    0.60444   12.75665
       O    -7.49775    0.21163   13.59123
      H1    -8.49817    0.39585   13.51464
       H    -8.65690   -2.75353   11.29151
       O    -9.42714   -2.28306   11.72623
      H1    -9.69446   -1.59795   11.06958
       H   -11.40668   -0.76582   10.04057
       O   -10.67187   -0.41237    9.48700
      H1   -10.47852    0.47101    9.87819
       H    -7.08716    0.87188    8.40833
       O    -6.36438    1.29010    8.96551
      H1    -6.41762    0.88322    9.84260
       H    -3.44308    1.66926   14.43659
       O    -4.13563    1.89399   13.83494
      H1    -4.91985    2.04097   14.33882
       H    -4.45801    3.95788   10.54142
       O    -4.56840    3.59378    9.64491
      H1    -4.93913    2.73378    9.86251
       H   -12.64290    5.30978    7.62670
       O   -13.15059    4.56987    7.26913
      H1   -13.07232    3.89573    7.97227
       H   -10.37044    1.04586   15.53286
       O   -10.78389    0.62545   14.80043
      H1   -11.00527   -0.22069   15.14334
       H   -12.55746   -3.23058    9.88513
       O   -12.65522   -3.83954    9.14598
      H1   -12.09884   -3.47154    8.47452

