132
frame 9 | Written by MDAnalysis XYZWriter (release 2.4.3)
       H     8.66170  -18.22946   -5.34955
       O     8.00985  -18.82771   -5.70037
      H1     7.14380  -18.33361   -5.71297
       H     1.89485  -17.35571  -10.03265
       O     1.55111  -17.84303  -10.79261
      H1     1.71882  -17.23871  -11.51610
       H    -0.31384  -12.74449   -6.40328
       O    -0.65352  -13.64605   -6.25000
      H1    -0.93000  -13.80008   -5.34670
       H     9.28766  -12.94534   -1.44948
       O     8.49870  -12.83369   -2.01140
      H1     8.85452  -12.46556   -2.81294
       H     1.83933   -7.94739   -3.87066
       O     2.78650   -8.17841   -3.76164
      H1     3.22649   -7.87252   -4.52143
       H     7.21973   -9.61688  -10.45486
       O     6.93828   -9.01162   -9.74793
      H1     7.69768   -8.66708   -9.32917
       H     1.94797  -11.55325   -6.41930
       O     1.00230  -11.31492   -6.19387
      H1     0.87617  -11.87041   -5.39897
       H     5.60761  -13.27381  -12.91811
       O     4.68175  -13.28998  -13.09693
      H1     4.49684  -12.32386  -13.24332
       H     8.45460  -14.12572   -3.36302
       O     8.26542  -14.82305   -4.04534
      H1     8.58155  -14.43579   -4.89198
       H     9.13407  -10.50885   -4.11929
       O     9.55383  -11.37150   -4.20071
      H1    10.02213  -11.38330   -5.03073
       H     3.72219  -13.60520   -4.11506
       O     3.49578  -13.66156   -5.00154
      H1     2.78749  -14.32972   -5.09078
       H     2.66909   -9.74163   -9.10929
       O     2.61515   -8.79609   -8.92179
      H1     3.53001   -8.41158   -8.98010
       H     8.59564  -17.64328   -9.08106
       O     8.06141  -16.95505   -9.55813
      H1     7.24366  -17.45722   -9.60542
       H    -0.52237  -12.83563   -3.50403
       O     0.27716  -12.38764   -3.81067
      H1     0.46882  -11.69382   -3.14465
       H     5.58362  -16.52411   -6.70118
       O     5.08520  -16.88342   -5.93346
      H1     5.21549  -16.29846   -5.14605
       H     1.02593  -15.30044   -2.30883
       O     1.19672  -14.37783   -2.16296
      H1     0.87168  -13.89712   -2.94770
       H     4.89248  -13.32468   -8.89292
       O     5.50511  -13.17195   -8.16627
      H1     5.02126  -12.76559   -7.47247
       H    11.56295  -13.44677  -10.43021
       O    10.74545  -13.09395  -10.71809
      H1    10.13678  -13.84648  -10.60516
       H     6.38180  -14.90876   -7.89149
       O     6.87527  -15.62733   -7.48719
      H1     7.36204  -16.01607   -8.21233
       H     4.30000  -10.66573   -6.15061
       O     3.88887  -11.45981   -6.52951
      H1     3.84346  -12.12068   -5.81346
       H     2.71184  -11.27225   -8.09348
       O     2.48389  -11.32545   -8.98390
      H1     1.56401  -11.35997   -9.22160
       H     6.54870  -15.41681   -3.66293
       O     5.63387  -15.78898   -3.33022
      H1     5.16549  -15.03426   -2.91502
       H     4.77449   -7.93241   -6.17138
       O     3.98034   -7.39592   -6.03515
      H1     3.23003   -8.04046   -6.34181
       H     8.81868  -12.20464   -8.37916
       O     9.76794  -12.33469   -8.37367
      H1    10.04799  -12.50974   -9.26006
       H     8.62986  -16.07229  -12.20979
       O     8.78878  -15.29300  -11.58179
      H1     8.33661  -15.59169  -10.75540
       H     4.88787  -18.14522   -9.57609
       O     5.11559  -18.04615   -8.65325
      H1     4.25117  -18.22109   -8.24813
       H     2.02818   -8.70673   -7.28136
       O     1.64836   -8.65323   -6.38118
      H1     1.26284   -9.51626   -6.11306
       H     0.35539  -11.00034  -10.87224
       O     0.11026  -11.40299  -10.05554
      H1    -0.58563  -10.75262   -9.78032
       H     9.61278   -8.66626   -7.36516
       O     9.11917   -7.94062   -7.73293
      H1     9.79354   -7.50435   -8.22755
       H     5.33056  -16.39167  -11.94967
       O     5.48060  -16.22526  -11.03781
      H1     4.54486  -16.10179  -10.80569
       H     3.95428  -10.12359  -12.91372
       O     3.68414  -10.84316  -13.46791
      H1     2.73616  -10.73892  -13.33216
       H     3.26926  -13.98780   -1.55146
       O     4.05385  -13.79696   -2.04972
      H1     4.63627  -13.25280   -1.45968
       H     6.36203  -11.50456   -7.95083
       O     6.96722  -10.84109   -7.79547
      H1     6.89530  -10.25549   -8.56925
       H     2.25013  -14.21663  -10.60623
       O     1.46861  -14.78380  -10.84687
      H1     0.69758  -14.22701  -10.77547
       H     3.42361  -12.39180  -10.05768
       O     3.67141  -13.20998  -10.52307
      H1     3.92937  -12.96134  -11.44768
       H     1.83984  -14.96052   -7.41587
       O     1.51143  -15.23812   -6.54853
      H1     0.66314  -14.70332   -6.46274
       H     3.43506   -9.82110   -3.70668
       O     3.58136  -10.77061   -3.51756
      H1     2.84816  -10.84573   -2.90771
       H    11.45477   -9.73295   -8.21883
       O    10.89432  -10.12627   -7.56392
      H1    10.44380  -10.93281   -7.99977
       H     6.13625   -9.99886   -6.61287
       O     5.69815   -9.56960   -5.85716
      H1     6.38924   -9.52174   -5.22488
       H     8.32249   -8.45795   -4.01075
       O     7.84559   -9.28930   -3.82150
      H1     7.15672   -9.17442   -3.20684
       H     5.01336   -6.98335   -8.57476
       O     4.68696   -7.36723   -9.34955
      H1     5.23116   -8.00495   -9.73774
       H     8.35765  -14.82740   -7.12371
       O     9.30911  -14.75220   -6.76224
      H1     9.78861  -13.94047   -7.04419
       H     3.00975  -19.08938   -6.21628
       O     3.08179  -18.35208   -6.85078
      H1     3.74881  -17.78834   -6.39850
       H     5.95583  -10.56270   -1.33007
       O     5.75129   -9.85702   -1.99735
      H1     5.22586  -10.41420   -2.63371

