132
frame 6 | Written by MDAnalysis XYZWriter (release 2.4.3)
       H    -7.62051    9.50530  -17.92135
       O    -8.23702   10.20751  -18.21931
      H1    -8.84330   10.45528  -17.45963
       H   -11.03873    9.14874  -11.54664
       O   -10.29297    8.97508  -12.16645
      H1   -10.51524    8.04880  -12.36504
       H   -11.24618    7.66827  -17.09598
       O   -10.36483    7.78879  -16.74565
      H1    -9.77004    7.86161  -17.50480
       H   -13.95320   11.63717  -12.37678
       O   -13.87975   11.39453  -11.44163
      H1   -14.63740   11.87045  -10.94339
       H   -13.72768   -0.01474  -15.94831
       O   -14.63603    0.06781  -16.22361
      H1   -14.86956    0.90538  -15.77314
       H   -16.46216    6.31472  -17.50174
       O   -16.38394    5.35723  -17.66275
      H1   -15.37237    5.26594  -17.70868
       H   -10.49242    5.94667  -19.28779
       O   -11.27577    5.43796  -19.08910
      H1   -11.82235    6.02501  -18.52574
       H   -13.08751    7.28746  -16.79749
       O   -13.14321    7.63658  -17.70728
      H1   -13.39611    8.55680  -17.63784
       H   -14.83783    1.89202  -11.39516
       O   -14.37675    2.36188  -10.64057
      H1   -15.02288    2.81483  -10.05589
       H   -15.45996    8.21358   -9.45120
       O   -15.21443    8.46543  -10.34531
      H1   -14.87140    9.37673  -10.27322
       H    -7.05765    7.79357  -15.34691
       O    -6.45870    7.20933  -14.83710
      H1    -5.85860    6.67035  -15.33364
       H   -11.27332    9.93850   -9.51600
       O   -12.08542    9.63502   -9.92047
      H1   -12.38560   10.45789  -10.42761
       H   -10.59780    6.27437  -12.57506
       O   -10.36743    6.55687  -13.47126
      H1    -9.46855    6.18504  -13.62355
       H   -16.58393   10.49358  -19.17365
       O   -17.42429   10.26406  -18.80535
      H1   -17.23430    9.38547  -18.42268
       H   -12.26105    5.62486  -10.37185
       O   -12.03215    5.40126  -11.29175
      H1   -12.89982    5.28301  -11.73962
       H   -16.80227    6.73721  -13.45782
       O   -16.10226    6.39456  -12.87477
      H1   -15.36905    7.02058  -12.85218
       H   -12.90466   12.93905  -14.04021
       O   -13.76376   12.48371  -13.92338
      H1   -14.18173   12.40809  -14.78066
       H    -7.35714   10.12075  -11.86930
       O    -7.84143    9.92802  -12.64936
      H1    -8.72056    9.48720  -12.38874
       H   -11.05971    3.59624  -11.73541
       O   -10.29889    3.09538  -12.08002
      H1    -9.52077    3.69635  -12.09221
       H   -11.77175    9.58902  -13.81192
       O   -11.83974    9.75879  -14.77785
      H1   -11.66683    8.90538  -15.23704
       H   -12.31705    7.84996   -9.44476
       O   -12.40134    7.08185   -8.86701
      H1   -11.51592    6.79890   -8.64749
       H   -17.69514    7.87160  -16.04789
       O   -17.10921    8.25144  -16.70191
      H1   -16.51517    8.84184  -16.20804
       H   -10.51687    4.19826  -17.88329
       O   -10.07297    3.41782  -17.47934
      H1   -10.38297    3.14488  -16.57203
       H   -17.41461    3.58351  -11.29449
       O   -17.78700    3.73505  -12.22913
      H1   -18.63054    3.18458  -12.32635
       H   -10.85447   12.38039  -16.92697
       O   -11.09923   12.48234  -17.83758
      H1   -11.70139   11.74698  -18.05940
       H    -9.68637    0.31842  -19.13420
       O    -9.36430    1.23841  -19.20768
      H1    -9.59717    1.72608  -18.38381
       H   -17.06516    6.35957  -10.98480
       O   -17.24050    6.13876  -10.08311
      H1   -18.16511    5.90495   -9.90585
       H   -15.59094   10.68654  -15.58408
       O   -15.84940    9.92925  -15.09514
      H1   -16.66016   10.12548  -14.60159
       H   -15.18247    4.78020  -13.07435
       O   -14.37757    4.22173  -13.13370
      H1   -14.59979    3.57420  -12.47752
       H    -9.50021    2.22853  -14.85575
       O   -10.46117    2.41382  -14.86119
      H1   -10.50330    2.95549  -14.04486
       H    -7.22500    4.85291  -16.84581
       O    -7.41642    4.16145  -16.18281
      H1    -8.27899    3.88157  -16.34225
       H    -8.69944    9.53306  -14.33395
       O    -8.62119    9.20530  -15.21866
      H1    -9.37218    8.62491  -15.18072
       H   -13.56821    4.26232  -18.81496
       O   -13.84914    4.69117  -17.99881
      H1   -13.45489    4.22352  -17.21426
       H   -17.82887    3.87271  -15.63524
       O   -17.77798    3.51968  -16.52617
      H1   -17.31399    4.31948  -17.01231
       H   -11.53147   -0.72109  -15.96360
       O   -11.79272   -0.06757  -15.31065
      H1   -11.20890    0.66495  -15.43571
       H   -14.19393   12.95374  -17.09260
       O   -15.00525   12.52483  -16.73319
      H1   -15.59050   13.27548  -16.74152
       H   -13.95380   10.67357  -17.36844
       O   -13.06341   10.45142  -17.12964
      H1   -13.04784   10.39043  -16.16904
       H   -13.09746    6.99429  -14.31010
       O   -12.63539    6.66452  -15.05764
      H1   -11.76110    6.62364  -14.66223
       H   -15.50992    3.10397  -15.92275
       O   -15.47085    2.45450  -15.20091
      H1   -14.97958    2.97913  -14.52398
       H   -14.29182    8.61095  -12.10123
       O   -14.16559    8.39480  -13.06754
      H1   -14.67267    9.01347  -13.60467
       H    -9.33350   11.95879  -14.83874
       O   -10.25174   11.94605  -15.15834
      H1   -10.69367   11.08261  -15.11730
       H    -6.62018    3.87992  -11.07402
       O    -6.93526    3.32602  -11.84552
      H1    -7.15255    3.98308  -12.54072
       H   -18.78621    7.26269  -13.51959
       O   -18.18699    7.85778  -14.01519
      H1   -18.59959    8.72948  -13.83931
       H    -7.61269    4.57313  -14.51830
       O    -7.80096    5.19488  -13.78578
      H1    -7.11729    5.89632  -14.04860

