132
frame 1 | Written by MDAnalysis XYZWriter (release 2.4.3)
       H    -7.82792   -0.69817   12.78125
       O    -6.87067   -0.58371   12.44688
      H1    -6.30936   -1.24216   12.88394
       H   -11.86878   -7.25439   17.44458
       O   -12.81271   -7.50706   17.67281
      H1   -12.83068   -7.31971   18.63798
       H   -11.30820   -9.83185   17.24006
       O   -11.78466  -10.31601   17.95775
      H1   -12.44388   -9.62196   18.18244
       H   -16.76404   -5.93955   13.11923
       O   -16.14173   -5.20353   13.19357
      H1   -16.15909   -4.74328   14.04035
       H   -14.32889   -0.42503   15.02125
       O   -13.36338   -0.50372   15.03332
      H1   -13.26977   -1.06872   14.24577
       H    -7.38435   -4.98920   17.81734
       O    -7.54417   -4.53602   18.70066
      H1    -6.91962   -4.95555   19.34969
       H   -14.09410  -10.42465   15.14810
       O   -14.43949  -11.09767   15.78819
      H1   -14.28191  -10.66413   16.66780
       H    -9.72529   -4.13575   15.55608
       O    -9.58449   -3.14728   15.39095
      H1    -8.75161   -2.85502   15.91961
       H   -10.22867   -8.05852   15.32299
       O   -10.30388   -8.91575   15.74195
      H1   -10.68293   -9.44982   15.03241
       H    -6.58543   -5.74373   11.41115
       O    -5.94427   -6.22796   11.94254
      H1    -6.13746   -7.17669   12.08057
       H   -12.20666   -6.45569   11.16974
       O   -11.49131   -6.97404   11.59790
      H1   -11.02779   -7.43006   10.85509
       H    -9.43103   -7.00779   18.43348
       O    -9.85997   -6.08958   18.51476
      H1    -9.20130   -5.49564   18.93858
       H    -7.42094   -4.20616   13.33388
       O    -6.63339   -4.51209   13.74275
      H1    -6.33078   -5.29356   13.21546
       H    -8.91956   -4.57590   12.44999
       O    -8.65914   -3.68208   12.12465
      H1    -8.25372   -3.81599   11.27979
       H    -8.10025   -8.50312   15.45012
       O    -7.16151   -8.23915   15.35127
      H1    -6.61502   -9.02649   15.37492
       H    -8.92118   -9.28623   17.79404
       O    -8.41846   -8.48538   18.05729
      H1    -7.56505   -8.74057   18.46376
       H    -5.32555   -9.29484   18.06791
       O    -6.14471   -9.46954   18.60323
      H1    -6.67454  -10.27603   18.37542
       H   -12.06740   -7.83583   13.33313
       O   -12.54149   -7.63440   14.11327
      H1   -13.03643   -6.79053   13.92981
       H    -9.50405   -0.97025   19.06584
       O   -10.31032   -0.49288   18.82657
      H1   -10.90851   -0.99930   18.31014
       H    -7.43270  -11.25788   13.85877
       O    -7.84997  -11.23460   12.98051
      H1    -7.47157  -10.36023   12.65398
       H    -8.00002   -1.69337   17.44368
       O    -8.05472   -1.30200   16.56352
      H1    -7.13824   -1.19919   16.28101
       H   -13.64633   -2.77041   11.54876
       O   -14.08695   -2.91271   10.67160
      H1   -15.03751   -2.70203   10.90312
       H    -4.13890   -1.82699   12.96561
       O    -4.79141   -2.21677   13.62382
      H1    -5.11968   -3.09048   13.35314
       H    -7.46460   -8.74019   11.14443
       O    -7.22935   -8.84628   12.07361
      H1    -7.79808   -8.33128   12.61853
       H    -5.61012  -11.22996   15.54610
       O    -6.46139  -10.79393   15.41579
      H1    -6.96318  -11.03458   16.22626
       H   -15.28028   -6.73926   18.61366
       O   -16.05500   -7.26633   18.37608
      H1   -16.80160   -6.63160   18.57275
       H   -13.76608   -6.16193   16.89460
       O   -14.26738   -5.47175   16.49625
      H1   -15.01091   -5.98340   16.10236
       H   -16.87943   -7.03455   15.01198
       O   -16.66528   -6.39465   15.71514
      H1   -16.54177   -6.86152   16.54910
       H   -12.79723   -3.19355   13.54791
       O   -12.80438   -2.33477   13.13694
      H1   -11.94021   -2.23607   12.65927
       H   -12.21358   -1.31664   16.21582
       O   -11.65669   -1.83510   16.76252
      H1   -11.06185   -2.25803   16.14111
       H   -16.31654  -10.32689   17.53084
       O   -15.70872  -10.03517   18.28722
      H1   -15.85431   -9.10574   18.45881
       H   -16.20200   -2.75555   16.10411
       O   -16.48384   -3.00575   15.22225
      H1   -17.41710   -3.09739   15.32597
       H    -9.87088   -1.03654   14.25074
       O    -9.39646   -0.49217   13.69777
      H1    -9.23365    0.35764   14.09022
       H    -9.61445   -5.98888   13.87944
       O    -9.18627   -6.13932   13.03537
      H1    -9.89654   -6.56297   12.52515
       H   -10.17794  -10.83644   13.33465
       O   -11.08780  -10.60163   13.40324
      H1   -11.36198  -10.47088   12.47172
       H    -7.12901   -5.09029   15.54043
       O    -7.26044   -5.63907   16.27646
      H1    -7.24291   -6.52523   15.93087
       H   -10.18207   -5.88149   16.43743
       O   -10.25158   -5.93941   15.47579
      H1   -11.20857   -6.07809   15.43423
       H   -10.08139   -2.23787   11.49283
       O   -10.80559   -1.71283   11.27453
      H1   -10.47278   -0.83209   11.42822
       H    -4.33884   -7.05385   17.77542
       O    -4.36273   -6.09552   17.82757
      H1    -3.51219   -5.84829   18.31082
       H   -14.58287   -3.80469   17.30932
       O   -14.91883   -3.00871   17.80476
      H1   -14.12538   -2.43141   17.83230
       H    -4.44180   -5.98464   14.33071
       O    -3.81505   -5.87872   15.00677
      H1    -4.30867   -5.96198   15.80492
       H    -8.86564  -12.06519   17.26381
       O    -8.02468  -11.73215   17.65828
      H1    -7.45921  -12.52936   17.71138
       H   -13.95414   -4.98097   14.77067
       O   -13.69546   -5.14990   13.84676
      H1   -14.55947   -5.26191   13.40485
       H   -14.46694  -10.26187   13.02489
       O   -14.51196   -9.43019   13.56316
      H1   -13.74430   -8.79206   13.55329

