132
frame 8 | Written by MDAnalysis XYZWriter (release 2.4.3)
       H    -3.60744  -15.66906  -11.90256
       O    -4.53837  -15.39147  -11.69023
      H1    -4.57186  -14.41539  -11.88811
       H    -7.40354   -8.45060  -17.62774
       O    -7.84109   -9.17592  -18.10238
      H1    -7.49740   -9.03253  -18.95548
       H    -9.09724  -12.72472  -18.15001
       O    -9.88009  -12.61837  -18.70388
      H1    -9.63030  -12.45470  -19.59590
       H    -9.26292   -4.41158  -15.42032
       O    -9.23864   -5.29670  -15.75642
      H1    -9.78304   -5.31482  -16.55168
       H    -4.69574  -11.83666  -15.02603
       O    -4.73446  -12.73680  -14.60099
      H1    -4.27222  -13.34571  -15.25601
       H    -8.89033  -10.82311  -10.35740
       O    -8.62982  -10.16038  -11.02076
      H1    -7.66690  -10.10600  -10.79929
       H    -1.62099  -10.27596  -13.55125
       O    -1.07764   -9.50113  -13.35092
      H1    -1.07014   -9.07583  -14.23497
       H   -11.20757  -10.86995  -13.21139
       O   -11.39069  -11.39048  -13.98090
      H1   -10.61540  -11.90139  -14.16424
       H    -4.05916  -17.51191  -14.09750
       O    -3.72891  -16.59138  -14.01714
      H1    -4.30079  -16.22742  -13.36356
       H    -2.28022  -11.51973  -17.99561
       O    -1.67212  -12.19055  -17.60152
      H1    -1.02189  -12.48375  -18.27347
       H    -7.73975  -14.95746  -13.67955
       O    -7.88361  -14.05773  -13.28117
      H1    -7.01017  -13.75398  -13.08015
       H    -7.48580  -10.78625  -14.20113
       O    -6.76795  -10.22020  -13.89778
      H1    -7.15876   -9.71926  -13.13704
       H    -5.31529  -16.94871  -16.40129
       O    -6.07032  -16.29902  -16.55040
      H1    -5.62708  -15.49835  -16.80384
       H   -10.78335   -8.63978  -18.66709
       O   -10.14186   -7.92058  -18.25276
      H1    -9.30286   -8.43547  -18.14014
       H    -8.72021  -13.31284  -14.76884
       O    -9.25639  -12.84337  -15.40297
      H1    -8.59629  -12.31608  -15.94530
       H    -5.53364   -9.00348  -11.55499
       O    -5.86250   -9.60179  -10.91226
      H1    -5.25152   -9.61194  -10.18548
       H   -10.30424   -6.52232  -13.29422
       O   -10.32814   -6.45913  -12.29457
      H1   -11.20350   -6.04691  -12.16100
       H   -11.54093  -10.17695  -19.90816
       O   -11.37329  -10.24084  -18.95708
      H1   -10.85559  -11.02071  -18.81552
       H    -5.37213  -12.31689  -13.02431
       O    -5.37479  -12.64520  -12.08675
      H1    -5.56769  -11.82773  -11.60923
       H    -9.99138   -9.59346  -11.83421
       O   -10.97115   -9.48224  -11.82106
      H1   -11.07851   -8.67238  -12.33929
       H    -2.31265   -5.56129  -15.68426
       O    -2.54540   -5.32354  -16.59465
      H1    -2.90593   -4.45409  -16.59375
       H    -2.68895  -13.31157  -16.91606
       O    -3.42194  -13.93313  -16.85058
      H1    -3.04793  -14.78333  -16.63302
       H     0.84257  -13.61298  -16.41030
       O     0.82123  -12.67722  -16.29719
      H1    -0.03742  -12.31492  -16.55874
       H    -5.62711   -7.40980  -16.85568
       O    -6.48051   -7.48205  -16.46822
      H1    -7.07033   -6.81250  -16.78721
       H    -4.07556   -9.97767  -19.00357
       O    -3.99187  -10.74423  -18.41372
      H1    -4.43484  -10.52473  -17.56929
       H    -5.31030   -9.96549  -15.16281
       O    -4.46472  -10.09549  -15.62301
      H1    -3.81830   -9.58595  -15.05500
       H   -11.79753   -7.09717  -15.67422
       O   -11.32649   -6.66385  -14.92898
      H1   -10.47222   -6.41838  -15.36573
       H    -3.24218  -12.36768  -12.80297
       O    -2.26540  -12.33723  -12.69592
      H1    -2.15591  -12.85145  -11.90198
       H    -4.31911   -4.59093  -11.04557
       O    -4.60174   -5.24593  -10.33859
      H1    -4.67803   -6.10071  -10.77375
       H    -7.31500  -13.61788  -10.21910
       O    -7.48916  -14.34132   -9.63379
      H1    -8.29654  -14.19784   -9.18025
       H    -3.67011   -7.36378  -12.46619
       O    -4.67275   -7.39067  -12.57044
      H1    -4.83059   -6.73651  -13.27675
       H     0.83325   -9.15487  -18.84455
       O    -0.03719   -8.84787  -18.53539
      H1    -0.70537   -9.41347  -18.93554
       H    -8.76061   -5.24088  -13.24426
       O    -8.02337   -4.72679  -12.90221
      H1    -7.24764   -5.10318  -13.36386
       H    -5.83390  -14.00582  -18.92566
       O    -5.65592  -13.28932  -18.31056
      H1    -4.78955  -13.50323  -17.98102
       H    -3.39705   -6.38002  -17.77444
       O    -4.12202   -6.83027  -18.26253
      H1    -3.80106   -7.39920  -18.97647
       H    -6.15468   -4.49987  -14.94700
       O    -5.80798   -5.34803  -14.69128
      H1    -6.12347   -6.00128  -15.32544
       H     0.31941  -12.98401  -14.51101
       O     0.31146  -13.15963  -13.56172
      H1    -0.60583  -12.84092  -13.37521
       H    -6.63630  -12.44554  -17.15723
       O    -7.28782  -11.75335  -16.81730
      H1    -7.21478  -11.03803  -17.47948
       H    -3.60018   -8.44907   -8.89815
       O    -3.66461   -9.40907   -9.10649
      H1    -3.85764   -9.89836   -8.29648
       H    -2.10971   -7.25489  -10.95215
       O    -2.01999   -7.31325  -11.92159
      H1    -1.61581   -8.18007  -12.04898
       H    -1.66573   -5.93879  -13.66833
       O    -1.77462   -5.00584  -13.93110
      H1    -0.97421   -4.95387  -14.49613
       H    -5.79012  -13.33578   -9.18779
       O    -5.43230  -12.48651   -9.12423
      H1    -6.06712  -11.99343   -8.51697
       H    -1.20614   -8.91686  -16.75545
       O    -1.34688   -8.39723  -15.95460
      H1    -0.57306   -7.85901  -15.83460
       H     0.87416  -11.63021  -12.85964
       O     1.17390  -10.84430  -12.30576
      H1     0.67017  -10.04950  -12.61836

