132
frame 9 | Written by MDAnalysis XYZWriter (release 2.4.3)
       H    -1.56019    8.89037    7.80490
       O    -1.31905    9.89316    7.71861
      H1    -1.99309   10.28473    8.25845
       H    -2.22283    3.81990    1.39820
       O    -1.46070    3.25346    1.01751
      H1    -1.35746    2.57605    1.69515
       H     1.20861    3.69412    5.01893
       O     1.08272    4.56459    5.31034
      H1     1.96196    4.92592    5.33967
       H    -8.90791    8.25889    6.38607
       O    -8.33665    7.55032    6.78540
      H1    -8.98290    7.13344    7.40673
       H    -0.99628    6.76205    5.11329
       O    -0.27149    7.02796    5.66053
      H1     0.23270    6.22925    5.71345
       H    -6.84282   -0.54847    6.80603
       O    -6.40062   -0.06340    6.12605
      H1    -5.56355    0.21898    6.60809
       H    -9.74268    4.45677    4.78858
       O    -9.22393    4.55098    3.99218
      H1    -8.40266    3.98711    4.13021
       H   -11.25171    4.06188    6.66020
       O   -10.36166    3.75632    6.47596
      H1    -9.72956    4.14902    7.13550
       H    -5.83998    4.46451    1.19097
       O    -6.09999    4.38270    0.27254
      H1    -6.76489    3.69874    0.33143
       H    -1.88825    5.32071    9.41315
       O    -2.31778    4.72284    8.75089
      H1    -3.17734    4.46862    9.16789
       H    -3.89895    5.41180    0.70753
       O    -3.32638    5.18530    1.48532
      H1    -2.74209    5.94810    1.63587
       H    -2.32926    2.21486    4.64850
       O    -2.89625    2.71789    4.02689
      H1    -3.56960    2.11808    3.62136
       H    -9.12479    6.04404    3.15952
       O    -9.08003    6.97288    2.78496
      H1    -8.10599    7.24302    2.67320
       H    -9.03635    2.60330    9.71605
       O    -9.17241    2.04687   10.48478
      H1    -9.90928    2.38358   11.02301
       H    -5.04265    6.39073    9.17515
       O    -4.82693    6.91487    9.96328
      H1    -5.18648    7.74720    9.60862
       H    -4.29328    1.11760    1.59020
       O    -4.44818    0.50915    2.26433
      H1    -5.11561   -0.08752    1.91973
       H    -3.50199    7.57747    1.37435
       O    -3.12218    7.83928    2.27414
      H1    -3.46584    7.22454    3.02509
       H    -6.51924   -0.84366    4.19321
       O    -6.58353   -1.76457    3.93840
      H1    -7.25447   -1.81366    3.21752
       H    -5.95633    8.84754    1.81085
       O    -6.23634    8.07563    1.28066
      H1    -5.60768    8.13532    0.54987
       H    -6.90824    1.72546    5.71695
       O    -6.93684    2.55895    5.16975
      H1    -6.20903    3.22892    5.39470
       H    -8.31218    4.83465    9.00040
       O    -8.26470    3.99027    8.51486
      H1    -7.53718    4.06753    7.94813
       H    -2.28274    4.80800    4.15999
       O    -2.49490    5.72178    4.44273
      H1    -3.28607    5.64424    5.00956
       H   -10.04994    1.61384    6.65097
       O    -9.89457    0.71234    6.85164
      H1   -10.13430    0.64555    7.81312
       H    -2.19732    6.40074    7.91765
       O    -2.14973    7.28657    7.51835
      H1    -1.49863    7.11363    6.81324
       H    -5.83880    7.98464    5.15016
       O    -6.65064    7.65943    4.63864
      H1    -7.34981    7.56239    5.34488
       H    -5.52973    4.50961    8.28758
       O    -5.63373    5.27881    7.70540
      H1    -5.29696    5.05477    6.81190
       H     0.47675   -0.80114    6.20786
       O    -0.24003   -0.80829    5.58597
      H1    -0.56840    0.10253    5.54264
       H    -0.07270    8.57498    2.95173
       O    -0.65000    9.04548    2.32834
      H1    -1.45575    8.51062    2.26821
       H    -7.61003    1.38568    3.37041
       O    -8.21387    0.66499    3.01105
      H1    -9.12223    1.04915    3.06519
       H    -5.54980    8.47761    7.53178
       O    -6.12727    8.64499    8.32576
      H1    -6.90324    8.09788    8.10082
       H    -4.20607   -0.33713    8.28005
       O    -3.95577    0.21079    7.50653
      H1    -3.56739    0.96835    7.94808
       H    -3.08492   -1.98004    6.03445
       O    -3.83961   -2.30720    5.46543
      H1    -4.47754   -1.59474    5.30850
       H    -0.92066    3.50427    8.22351
       O    -0.13352    3.27206    7.66826
      H1    -0.03281    3.93218    7.01974
       H    -9.00312    5.99149   10.67510
       O    -8.47819    6.32316    9.89424
      H1    -7.53869    6.14023   10.22682
       H    -1.97187    9.86099    5.94848
       O    -2.74957   10.05541    5.40312
      H1    -3.43018   10.63653    5.87338
       H   -10.63874    3.85921    2.89337
       O   -11.47363    3.70208    2.43702
      H1   -11.53289    2.73847    2.46811
       H    -1.29684   -0.39004    2.11208
       O    -1.48721    0.55535    2.36439
      H1    -2.45838    0.44725    2.41811
       H    -4.28416    2.96734   -0.38172
       O    -3.74502    2.24931    0.01531
      H1    -2.85920    2.64517    0.06590
       H    -0.67355    2.13403    6.20800
       O    -1.02212    1.65147    5.42297
      H1    -0.33137    1.76368    4.73266
       H    -5.44369    4.63982    4.38286
       O    -4.99564    4.25308    5.18027
      H1    -4.24363    3.68978    4.82792
       H    -7.08716    0.87188    8.40833
       O    -6.36438    1.29010    8.96551
      H1    -6.41762    0.88322    9.84260
       H    -4.74275    5.55723    2.51446
       O    -5.64813    5.43212    2.83058
      H1    -5.89115    6.33535    3.12047
       H    -4.45801    3.95788   10.54142
       O    -4.56840    3.59378    9.64491
      H1    -4.93913    2.73378    9.86251
       H    -3.92894    7.45702    6.74755
       O    -4.38132    7.99240    6.11517
      H1    -3.73676    8.73558    5.95303

