132
frame 7 | Written by MDAnalysis XYZWriter (release 2.4.3)
       H    -3.36327   -2.79702   11.18765
       O    -2.95473   -1.93133   11.25194
      H1    -2.48152   -1.97060   12.09331
       H    -7.39412   -5.30075   18.06230
       O    -6.72282   -5.42438   18.75101
      H1    -5.81569   -5.12990   18.53695
       H   -11.19426   -3.79869   17.09413
       O   -11.52243   -4.60625   17.59937
      H1   -11.19803   -5.29716   17.03681
       H     0.96724   -1.12999   18.20639
       O     1.83037   -1.07534   17.79521
      H1     2.00878   -2.02751   17.53473
       H    -3.69400    2.83490   17.08582
       O    -2.77654    3.04783   17.29136
      H1    -2.60640    3.62297   16.51778
       H    -9.03610   -4.30941   19.98548
       O   -10.00027   -4.57615   19.97387
      H1   -10.37086   -4.58024   19.05704
       H    -4.26759   -5.53575   12.79027
       O    -4.24950   -5.17457   11.88616
      H1    -4.68791   -5.79736   11.27465
       H    -6.83770   -3.78681   10.84883
       O    -6.76340   -4.09305   11.73431
      H1    -5.82316   -4.41145   11.89257
       H    -0.96957   -0.84526   13.62816
       O    -1.84163   -1.17251   13.87287
      H1    -2.45973   -0.38427   13.85808
       H    -2.48299  -11.59364   18.57335
       O    -2.82237  -10.72798   18.31708
      H1    -2.11624  -10.36959   17.72935
       H    -2.78124   -8.69183   13.21593
       O    -1.89668   -8.28452   12.93391
      H1    -2.12063   -7.89880   11.97809
       H    -7.24584   -7.68344   15.33274
       O    -7.38542   -7.12485   14.54962
      H1    -8.05559   -7.62362   14.02203
       H    -0.43392   -3.54227   14.29507
       O    -1.36729   -3.85567   14.06428
      H1    -1.93017   -3.06144   13.96694
       H    -4.85734  -10.75354   16.60888
       O    -4.67594  -10.35244   15.75690
      H1    -3.82536  -10.68193   15.45080
       H    -1.94204   -7.02045   17.67791
       O    -2.11635   -7.87635   18.08922
      H1    -1.64594   -7.77139   18.89691
       H     0.19394  -10.19779   17.00836
       O    -0.17474   -9.37624   16.66005
      H1    -0.53137   -8.77927   17.35340
       H    -6.80216   -7.21462   19.39195
       O    -6.58407   -8.14665   19.18818
      H1    -6.85443   -8.28973   18.28275
       H    -1.68515   -4.25214   10.83696
       O    -0.88804   -4.57968   11.23213
      H1    -1.13198   -4.68693   12.15143
       H    -1.44673   -4.99420   15.71306
       O    -1.33395   -5.83390   16.20633
      H1    -0.79816   -6.35135   15.60663
       H   -10.26709   -2.62046   19.69549
       O   -10.25215   -1.67918   19.62873
      H1   -10.91218   -1.48362   18.96799
       H     1.62541   -0.03119   14.38066
       O     0.98009   -0.05889   15.10467
      H1     1.33957   -0.61198   15.82372
       H    -4.56166   -1.09511   19.18134
       O    -4.82368   -1.71436   19.88356
      H1    -4.76333   -2.59993   19.42603
       H    -7.56723   -2.43646   18.28235
       O    -7.59714   -1.91870   17.50037
      H1    -6.73625   -1.91929   17.05928
       H    -6.01603   -1.13478   13.09503
       O    -5.63816   -1.98890   13.44270
      H1    -6.19850   -2.62349   12.94636
       H    -1.00476    0.18727   18.78353
       O    -0.72212   -0.69006   19.09629
      H1    -0.97248   -0.70447   20.03148
       H    -4.55273    0.60333   17.27494
       O    -4.00068    0.02325   17.83583
      H1    -3.61381    0.64232   18.54154
       H    -6.26636   -9.44189   16.25828
       O    -7.00007   -8.88559   16.57425
      H1    -7.82467   -9.28135   16.27928
       H    -1.61479    2.90915   18.54830
       O    -1.02339    2.35345   19.08129
      H1    -0.39162    2.97087   19.55124
       H    -5.35837   -8.97251   12.65419
       O    -4.67929   -8.31368   12.45999
      H1    -4.65925   -7.71980   13.17560
       H     2.11915   -3.31598   14.71089
       O     1.29999   -3.78402   14.82688
      H1     1.45638   -4.72352   14.97071
       H    -1.72438   -3.95836   20.07240
       O    -1.78721   -3.75425   19.13143
      H1    -1.68327   -2.82122   19.09815
       H    -9.74998   -2.09361   17.42522
       O   -10.33568   -2.31674   16.74998
      H1    -9.79723   -2.40326   15.92499
       H    -0.29079   -4.75974   18.80865
       O     0.42598   -5.41436   18.70133
      H1     0.28773   -5.85665   17.83149
       H    -8.89970   -4.43922   15.89137
       O    -8.65128   -5.28403   16.37737
      H1    -7.93731   -5.72445   15.86766
       H   -10.26644   -7.42276   17.87370
       O   -10.43331   -7.19316   16.94175
      H1    -9.70838   -6.58742   16.70061
       H    -8.67365   -0.25307   13.85649
       O    -8.73032    0.66329   14.01000
      H1    -9.63187    0.73231   14.45247
       H    -5.36476   -2.07593   15.33491
       O    -5.27062   -2.25335   16.29383
      H1    -4.57889   -1.59282   16.55140
       H    -5.60640   -7.33702   17.93361
       O    -4.95703   -7.04575   17.22946
      H1    -4.28737   -7.72924   17.30537
       H    -3.52130   -4.16479   18.25992
       O    -4.41028   -3.86161   18.27077
      H1    -4.59802   -3.45883   17.38239
       H    -2.11447    1.66305   14.23594
       O    -2.94015    1.26334   14.54753
      H1    -2.83769    1.12607   15.44806
       H    -5.70558    2.28382   17.76489
       O    -5.44236    2.22811   16.83204
      H1    -6.18273    2.54886   16.26732
       H    -4.76195    1.04078   14.24691
       O    -5.45393    0.95481   13.61312
      H1    -6.25947    1.39794   14.03833
       H    -5.53986   -6.07148   14.13528
       O    -4.62457   -6.39253   14.21924
      H1    -4.32197   -6.22949   15.09122
       H     2.33586   -4.32398   17.97346
       O     2.47794   -3.76871   17.20438
      H1     1.80143   -3.82597   16.54495

