132
frame 0 | Written by MDAnalysis XYZWriter (release 2.4.3)
       H    -4.02219    4.28283   10.46519
       O    -3.48613    4.40580   11.25622
      H1    -3.87125    3.96582   11.98936
       H    -9.98113    5.34535   12.97821
       O   -10.62471    5.48232   13.64095
      H1   -10.50028    6.44194   13.79760
       H    -6.70709   11.79192   14.44923
       O    -7.02731   12.02691   15.32440
      H1    -7.92115   11.64999   15.23399
       H    -1.21617    4.74224   15.00610
       O    -2.00581    4.58171   15.48630
      H1    -1.75986    4.04708   16.28167
       H    -4.85264    3.75819   18.75027
       O    -4.01029    3.80147   18.24535
      H1    -4.14610    4.57958   17.71840
       H    -0.72668    4.89694   11.11328
       O    -0.86561    4.00153   10.80737
      H1    -1.81888    3.82536   10.90535
       H    -7.82076    1.38675   13.84899
       O    -8.49667    2.10219   14.02337
      H1    -8.53711    2.55393   13.14180
       H    -2.75067   12.88495   19.06784
       O    -1.78223   12.92500   19.11103
      H1    -1.64394   12.02089   19.44412
       H    -7.80197    3.10389   15.57300
       O    -7.30477    3.73973   16.03675
      H1    -6.96719    4.34130   15.44738
       H    -1.00676    2.32212   17.16499
       O    -1.00234    3.08200   17.84775
      H1    -1.68717    2.79278   18.51509
       H    -7.90548    4.94484   10.79613
       O    -8.19783    4.38365   11.49136
      H1    -7.82150    4.81132   12.29951
       H    -0.62742    8.40181   12.24982
       O    -1.45773    8.82207   12.41647
      H1    -1.46113    9.68425   12.02480
       H    -3.35955    7.91354   11.90389
       O    -4.11336    7.48261   11.49467
      H1    -4.13070    6.55997   11.68128
       H    -8.79184    8.70441   16.91359
       O    -8.44548    7.88191   16.52103
      H1    -9.17531    7.28877   16.30788
       H    -2.95617    7.18064    9.66448
       O    -2.81350    7.00874    8.73671
      H1    -1.85172    6.88608    8.65548
       H     1.30436    0.88404   16.23801
       O     0.34233    1.13291   16.31898
      H1     0.10089    0.46265   16.97911
       H    -6.90413    7.96685   15.61735
       O    -6.23674    8.07448   14.94940
      H1    -5.46857    7.57372   15.32338
       H    -9.17310   10.67818   13.84449
       O    -9.29737   10.28388   14.72869
      H1    -8.60092    9.63248   14.88707
       H    -7.30032    8.09653   18.61452
       O    -6.83264    7.55719   19.25379
      H1    -7.08922    6.64834   19.09105
       H    -0.68239    7.65888   19.07491
       O    -0.42526    7.20119   18.26365
      H1    -0.22724    7.97560   17.69160
       H    -6.10350    2.31312   16.47186
       O    -5.21344    1.93578   16.64249
      H1    -4.67043    2.54297   17.22374
       H    -3.30657    5.87193   16.05350
       O    -4.08826    6.31265   16.41070
      H1    -3.71088    6.99752   16.91675
       H     1.39754    5.06475   14.31783
       O     2.05487    5.69707   14.68683
      H1     1.75546    5.85367   15.56812
       H    -6.13072    8.27022    9.31593
       O    -6.26688    8.48150   10.22110
      H1    -5.50574    8.07074   10.62162
       H     1.23946    6.20602   17.99805
       O     2.09783    5.88648   17.69102
      H1     1.88943    4.95538   17.96505
       H    -5.67359   10.41311   12.91457
       O    -5.62730   11.33429   13.06980
      H1    -4.67879   11.49542   13.23795
       H    -1.20685    9.29013   14.48911
       O    -0.85617    8.90129   15.32047
      H1    -0.21296    9.52929   15.63279
       H    -6.53511    6.29528   14.12172
       O    -6.59066    5.44979   13.71902
      H1    -5.70422    5.02932   13.81094
       H     0.93390    3.12370   18.32889
       O     1.78525    3.39721   18.62187
      H1     2.34479    2.69631   18.27028
       H   -11.28756    7.97334   15.69588
       O   -10.85795    8.21343   14.87867
      H1   -10.37038    9.08845   15.04257
       H    -6.87626    2.08945   19.48131
       O    -7.83184    2.32739   19.50822
      H1    -8.15652    2.06890   18.62668
       H    -2.48353   12.36622   14.21565
       O    -2.95826   11.49197   14.32048
      H1    -3.51545   11.78052   15.11731
       H    -9.50146    0.98943   16.77217
       O    -8.56147    1.06688   17.01134
      H1    -8.26241    0.18063   17.29244
       H    -4.71619   -1.32053   15.53519
       O    -4.84059   -0.78060   16.29403
      H1    -5.09707    0.08928   16.01106
       H     1.86336    9.79154   17.23712
       O     0.94300    9.92902   17.32801
      H1     0.75539   10.88652   17.36519
       H    -8.76112    4.68059   16.44780
       O    -9.59947    5.20127   16.38916
      H1    -9.96762    4.96799   15.50055
       H    -3.39434    3.80233   14.68221
       O    -4.29324    3.51459   14.33168
      H1    -4.59856    2.83876   14.99745
       H     1.65666    7.18548   13.88268
       O     1.14294    7.92703   13.43867
      H1     0.50707    8.25776   14.09188
       H    -6.99598    4.14843   19.49384
       O    -6.45399    4.68251   18.95055
      H1    -6.76643    4.32548   18.07812
       H    -5.94384    1.55070   12.25685
       O    -6.25970    1.84040   11.37458
      H1    -6.75159    1.11863   11.15211
       H     0.07054    3.85753   12.33453
       O     0.59970    3.68997   13.11325
      H1     1.19798    3.00620   12.81893
       H    -5.76012   10.49311   18.24170
       O    -5.15038   10.82994   17.49014
      H1    -5.69527   11.40237   16.96329
       H    -9.64567    9.05633   18.75406
       O    -9.24652    9.81737   18.26138
      H1    -8.59710   10.15981   18.91161
       H    -3.74335    9.69433   17.08084
       O    -3.21343    8.90119   17.32154
      H1    -2.39846    8.95862   16.79856

