132
frame 1 | Written by MDAnalysis XYZWriter (release 2.4.3)
       H    -2.81093    3.28110   -3.57577
       O    -3.37920    2.71505   -3.00613
      H1    -3.62073    3.18489   -2.18911
       H    -6.21608    6.24781   -5.27665
       O    -6.05543    5.30251   -5.40957
      H1    -6.45837    4.88785   -4.61639
       H    -6.96365    6.66656   -8.46610
       O    -7.52548    7.04962   -7.73680
      H1    -8.40263    6.69214   -7.75489
       H   -10.20189    5.83703   -7.84641
       O    -9.97899    5.98202   -8.77262
      H1    -9.80838    5.11163   -9.09105
       H    -8.56987    2.93001   -4.44473
       O    -7.87996    3.27852   -3.83067
      H1    -7.93505    2.60218   -3.10289
       H   -11.10377    5.49376   -5.65595
       O   -10.17271    5.57685   -5.84222
      H1    -9.91128    6.34483   -5.30867
       H    -4.72494    2.48155   -3.81935
       O    -5.42404    2.32932   -4.50620
      H1    -6.26889    2.74553   -4.16812
       H    -9.12746   -1.57939   -7.65802
       O    -9.41596   -2.13705   -8.41563
      H1    -8.73085   -2.03545   -9.14785
       H    -4.85749   -1.85709   -3.71987
       O    -4.24171   -2.54811   -4.01516
      H1    -3.44219   -2.00904   -3.92266
       H    -9.77466    3.65271   -5.90151
       O    -9.33015    2.81846   -6.04979
      H1   -10.00407    2.13341   -5.93890
       H    -5.79188    5.14144    2.00488
       O    -6.02125    5.08821    1.07729
      H1    -6.96041    4.95981    1.02948
       H    -4.58230    5.40169   -3.59822
       O    -4.92114    5.96023   -2.83914
      H1    -4.47993    5.52879   -2.10436
       H    -7.81302   -2.72100   -3.80236
       O    -7.36110   -2.17063   -4.43966
      H1    -6.68429   -2.69318   -4.92879
       H   -12.74025    1.71334   -8.43636
       O   -11.94654    1.68187   -7.82023
      H1   -11.23978    1.48378   -8.42341
       H   -11.42336    1.06781    2.65310
       O   -11.73926    1.71471    2.01300
      H1   -11.09533    1.68301    1.28050
       H    -5.83701    2.09421   -7.35518
       O    -5.60678    1.13432   -7.12207
      H1    -5.27292    1.14051   -6.25084
       H    -7.48548    7.89164    1.88595
       O    -7.03935    7.99067    1.06877
      H1    -6.66334    7.08906    0.80345
       H    -7.77092    3.41910   -7.10137
       O    -6.87425    3.68737   -7.41979
      H1    -6.56385    4.24013   -6.68409
       H    -4.58688    2.94154    0.51363
       O    -4.60741    2.30220    1.23470
      H1    -4.88831    1.57136    0.72452
       H    -7.67959    2.89232    2.53092
       O    -7.35065    2.21806    1.94050
      H1    -6.40485    2.33007    1.90329
       H    -4.47929    5.11103   -6.34174
       O    -3.63249    5.35788   -6.79225
      H1    -2.96166    4.81684   -6.31278
       H    -4.79223    0.20034   -0.89312
       O    -5.25825   -0.00134   -0.08569
      H1    -6.07978   -0.43252   -0.46218
       H    -6.77443    0.93126   -1.76740
       O    -7.26314    1.77611   -1.67867
      H1    -7.43810    1.83736   -0.75953
       H   -10.46900    1.81412   -1.30202
       O   -11.23730    2.02584   -1.83706
      H1   -10.85845    2.49019   -2.55632
       H    -6.86633   -0.04115   -6.64265
       O    -7.71138   -0.47453   -6.49023
      H1    -7.48461   -1.25713   -5.92917
       H   -11.51566    5.44743    2.70392
       O   -11.00959    4.91209    2.07396
      H1   -11.24028    4.03224    2.40906
       H    -5.66855    0.64096   -3.83530
       O    -5.64939   -0.22313   -3.40554
      H1    -6.37411   -0.72596   -3.82621
       H    -7.60265   -2.21882   -0.79693
       O    -7.62471   -1.53471   -0.11763
      H1    -7.84181   -1.90905    0.75327
       H    -7.49704    5.83460   -2.13985
       O    -8.42623    5.69219   -2.25322
      H1    -8.41175    4.90364   -2.84341
       H   -11.50724    4.35031   -0.57574
       O   -11.32845    5.09737   -1.14756
      H1   -12.06893    5.35127   -1.62927
       H   -12.26904    2.02184   -5.16011
       O   -12.31119    2.84653   -4.69385
      H1   -12.77263    3.47156   -5.31070
       H   -12.39031    0.41184   -1.62295
       O   -12.99911   -0.30434   -1.59129
      H1   -12.40534   -1.11384   -1.49124
       H    -4.79579    4.69210   -0.02225
       O    -4.06603    4.34179   -0.57286
      H1    -3.24339    4.62924   -0.09724
       H    -9.78395   -2.63922   -1.71001
       O    -8.99981   -3.14443   -2.04561
      H1    -9.04622   -4.09688   -1.77635
       H   -13.78705    2.68692   -3.81469
       O   -14.73787    2.76764   -3.73317
      H1   -15.00073    1.84393   -3.88594
       H    -6.34638    8.90906   -2.83684
       O    -5.59504    8.72248   -2.25921
      H1    -5.40712    7.80659   -2.52755
       H   -10.41885   -0.54255   -4.80464
       O   -10.39047    0.16524   -5.45687
      H1    -9.49498    0.09156   -5.79151
       H   -10.49545    6.60499   -0.60639
       O   -10.37258    7.58342   -0.45963
      H1    -9.68986    7.52950    0.25394
       H    -8.66090    6.78155   -3.48795
       O    -8.72988    7.37980   -4.27535
      H1    -9.06285    8.24601   -3.97121
       H    -1.70074    3.07139   -4.86429
       O    -2.05475    3.94885   -5.10640
      H1    -1.70383    4.51499   -4.42026
       H    -7.34800    7.75945   -5.18124
       O    -6.45807    8.14138   -5.11104
      H1    -6.23069    8.43356   -6.02609
       H    -2.41883   -0.27129   -2.16806
       O    -2.76691    0.33208   -1.54156
      H1    -2.71951    1.27503   -1.88322
       H    -9.51247    4.99537    1.07644
       O    -8.72368    5.32784    0.63140
      H1    -8.92309    5.39773   -0.28483
       H    -9.38392    0.07860    0.49760
       O    -9.51369    1.03969    0.45956
      H1    -8.74237    1.35206    1.01488

