132
frame 6 | Written by MDAnalysis XYZWriter (release 2.4.3)
       H   -11.01240    9.92487    3.45334
       O   -11.94393   10.11224    3.50784
      H1   -12.06028   10.91338    2.94716
       H    -9.41350    8.71838    7.55118
       O    -8.57339    8.37505    7.85369
      H1    -8.77602    7.73034    8.45725
       H   -13.70653    9.92711    6.54965
       O   -13.17601    9.44575    7.22853
      H1   -13.83317    9.18965    7.90612
       H   -12.08597    9.99721   -0.29081
       O   -11.26768    9.54960   -0.50037
      H1   -10.99074    9.09468    0.31387
       H   -10.08632    6.40611    5.52063
       O    -9.43260    6.66971    4.87903
      H1    -8.58204    6.45965    5.32374
       H    -6.54337   13.56920    7.96043
       O    -6.34443   14.08681    8.76209
      H1    -7.08476   14.67446    8.96556
       H   -10.42105    4.88636    7.21311
       O   -10.14183    4.10288    7.70124
      H1    -9.28255    4.32148    8.06802
       H    -8.25356    9.52774    0.50526
       O    -8.53610   10.14106   -0.19400
      H1    -9.45976   10.05723   -0.22234
       H    -6.56304    4.92476    1.07884
       O    -6.82433    4.47631    0.29087
      H1    -7.61578    3.92379    0.42123
       H    -8.71656    9.57438    9.51828
       O    -8.54735   10.36668   10.10364
      H1    -8.51050    9.97193   10.95623
       H   -11.49450    9.39988    6.29330
       O   -10.51700    9.41120    6.28859
      H1   -10.16148    9.26407    5.43967
       H    -6.70332    8.40254    2.04183
       O    -7.11454    8.18593    1.15942
      H1    -6.45785    8.31428    0.55670
       H    -7.89050   12.57156    2.45263
       O    -7.38920   11.73914    2.50820
      H1    -7.61045   11.31962    1.63755
       H   -12.73963   12.91706    1.52266
       O   -13.00256   12.10274    2.02261
      H1   -13.45314   11.46301    1.45234
       H    -4.66634    8.40107   10.02829
       O    -5.16687    7.93685    9.37782
      H1    -5.21310    8.59548    8.61564
       H   -10.30266   15.30712    3.85581
       O   -10.79234   16.11920    4.06101
      H1   -11.69643   15.80723    4.23764
       H    -3.69694    8.38687    1.67898
       O    -4.03808    8.93547    2.42129
      H1    -4.43120    9.66884    1.97522
       H    -6.35745    7.51983    4.76217
       O    -6.20696    7.85239    3.83683
      H1    -5.25461    8.13501    3.79568
       H   -11.39234    6.70555    7.63695
       O   -11.51578    6.37618    6.71666
      H1   -12.41823    6.59026    6.40761
       H    -7.89461    2.91209    3.89312
       O    -7.56571    3.10490    2.98231
      H1    -6.88553    3.72582    3.17687
       H   -12.31552    5.25856    3.08722
       O   -12.95737    5.65469    2.47425
      H1   -12.58238    5.26437    1.67657
       H    -6.39521    6.27246    6.60879
       O    -7.05980    6.86009    6.18244
      H1    -7.55121    7.13853    6.94453
       H    -4.47353   12.12364    3.67098
       O    -4.77382   12.42388    2.79887
      H1    -5.68500   12.19562    2.69778
       H    -6.78795   10.53425   -0.25935
       O    -5.81940   10.76489   -0.01832
      H1    -5.73228   11.75915   -0.04986
       H    -5.06591    6.49505    8.26397
       O    -5.15258    5.68519    7.70929
      H1    -4.43063    5.58705    7.08225
       H    -9.92239   13.28089    3.50172
       O    -9.20763   13.70766    3.03931
      H1    -9.60020   13.93756    2.21155
       H    -0.73078    9.38866    2.95981
       O    -1.52819    9.94867    2.68625
      H1    -2.27222    9.41837    2.96212
       H   -11.78430   12.08908    5.07831
       O   -11.53135   12.97819    5.26566
      H1   -11.06281   12.84768    6.16503
       H    -4.53217    9.31742    6.41310
       O    -5.26551    9.54722    7.08662
      H1    -6.04406    9.21465    6.56990
       H    -8.36818    9.49748    3.84746
       O    -9.26813    9.16408    3.82559
      H1    -9.11399    8.21031    3.95405
       H    -5.41636   13.30228   -1.02779
       O    -5.83831   13.29414   -0.14014
      H1    -5.45124   13.88790    0.54517
       H   -12.08663   10.14367    8.73186
       O   -11.64076   10.37717    9.54385
      H1   -12.40925   10.40432   10.18370
       H    -9.76120    5.02134    3.59904
       O   -10.14476    4.39942    2.91978
      H1    -9.39271    3.78361    2.86487
       H   -15.40384    9.72929    5.01803
       O   -14.71898   10.40615    5.08798
      H1   -14.05819   10.14052    4.43979
       H    -6.21494   12.52255    9.47591
       O    -6.08778   11.55658    9.66484
      H1    -6.89217   11.09728    9.45102
       H    -9.60209   12.08638    8.08592
       O    -9.45167   12.14316    7.11590
      H1    -9.90979   11.30983    6.91253
       H    -4.70642    4.94661    4.28530
       O    -4.16738    4.77883    5.06575
      H1    -4.21862    3.83235    5.10111
       H    -7.21116    8.12290   -1.46859
       O    -6.26853    8.42436   -1.71581
      H1    -5.77569    7.62085   -1.92481
       H    -6.12508   11.35470    7.12187
       O    -6.52476   12.19245    6.84101
      H1    -7.46447   12.05564    6.97416
       H    -4.85177    5.52316    2.27674
       O    -5.72443    5.41559    2.68515
      H1    -5.93611    6.39808    2.87380
       H   -10.42523    7.26324    2.10996
       O    -9.97251    7.57923    1.33763
      H1    -9.06055    7.27765    1.41497
       H    -8.75522    6.16824   -1.90756
       O    -8.64856    7.12219   -1.60851
      H1    -9.47994    7.24039   -1.23148
       H    -2.32054    7.89481    5.92812
       O    -3.01701    8.44360    5.57959
      H1    -2.57345    9.27224    5.27370
       H    -3.65726   12.95681    5.48578
       O    -3.82907   11.99720    5.43991
      H1    -4.74649   11.98271    5.69689

