132
frame 1 | Written by MDAnalysis XYZWriter (release 2.4.3)
       H     2.23672   18.56810   -7.73317
       O     2.44397   17.96145   -8.44707
      H1     3.29873   17.60399   -8.18049
       H     5.42979   17.67278  -13.33554
       O     4.62944   18.24172  -13.32362
      H1     4.15545   18.24027  -12.52465
       H    -2.38794   18.08684   -3.45813
       O    -2.57694   17.81131   -2.54773
      H1    -2.23548   18.55270   -2.02853
       H    -4.64368   13.79214  -10.39964
       O    -5.36339   13.91366  -11.01972
      H1    -5.26792   13.37826  -11.84491
       H    -0.13931   15.64382   -2.67453
       O    -0.84662   15.75213   -2.00094
      H1    -1.48056   16.42963   -2.29427
       H    -2.72170   18.07396  -13.34424
       O    -2.71166   18.98948  -13.66614
      H1    -2.16904   19.04032  -14.49937
       H    -4.04856   19.44454  -11.66729
       O    -4.91768   19.07247  -11.59700
      H1    -5.50577   19.79265  -11.30568
       H     0.37445   12.77044   -7.77826
       O     1.27579   12.58532   -8.12938
      H1     1.56439   13.46178   -8.39962
       H     7.43783   16.21145  -13.14440
       O     6.55042   16.18160  -12.72582
      H1     6.60273   16.11990  -11.75532
       H     3.67977   14.40070   -8.50032
       O     3.16718   14.36052   -9.31271
      H1     2.33324   14.80039   -9.15176
       H     4.80842   11.85971  -11.28129
       O     4.77756   10.92918  -11.55301
      H1     3.83780   10.73889  -11.45630
       H     0.04875   15.67708  -12.51798
       O     0.66962   15.86977  -13.21095
      H1     1.30238   15.18304  -13.14203
       H    -2.75251   19.13757  -10.19292
       O    -2.70406   18.59444   -9.40499
      H1    -3.61440   18.69324   -9.06090
       H    -2.26249   18.95298   -5.40788
       O    -1.54896   18.47571   -4.87835
      H1    -0.86830   19.13336   -4.65847
       H    -0.35791   12.06515  -14.21449
       O    -0.10824   12.87721  -13.75652
      H1    -0.12218   13.51995  -14.42086
       H     5.85884   16.72186   -8.91320
       O     6.52506   16.88374   -9.61166
      H1     7.31867   16.36249   -9.46659
       H     2.35113   16.95350   -1.11078
       O     2.40989   17.18988   -2.05195
      H1     2.46712   18.17275   -2.04993
       H     0.33127   15.58353   -7.81371
       O     0.80468   15.71590   -8.66982
      H1     1.09671   16.64307   -8.74730
       H     1.92240   19.43670  -11.20841
       O     2.72948   19.27130  -10.74031
      H1     2.48843   18.69544   -9.97270
       H    -1.48469   12.85911   -6.16157
       O    -1.12468   12.97592   -7.05391
      H1    -1.59117   12.42005   -7.67674
       H     1.09057   17.79117  -13.30675
       O     1.53536   18.55687  -13.56020
      H1     1.95030   18.53731  -14.42903
       H     5.05558   17.29989   -6.85690
       O     4.80319   16.52038   -7.46796
      H1     4.45726   15.86197   -6.86221
       H     0.16719   11.70309  -11.23454
       O    -0.76613   11.54022  -11.49396
      H1    -0.87083   12.19605  -12.23777
       H    -4.41194   15.81213   -5.41387
       O    -5.07633   16.50663   -5.54185
      H1    -5.17667   16.85995   -4.59494
       H     6.17910   18.41804  -10.28401
       O     5.89948   19.22796  -10.76790
      H1     4.93614   19.44467  -10.80669
       H     1.93129   11.51151   -6.52353
       O     2.09042   11.43305   -5.52379
      H1     1.63827   12.21676   -5.14662
       H     1.24692   10.41964   -9.96801
       O     1.84964   11.00619  -10.43892
      H1     1.92295   11.79837   -9.93596
       H     4.00507   16.43255   -2.55251
       O     4.79407   15.99984   -2.92105
      H1     4.95044   15.13763   -2.43914
       H    -2.62456   15.29848  -15.98058
       O    -1.81969   15.08292  -15.51420
      H1    -2.11306   15.17553  -14.62389
       H     5.11084   19.14223   -5.61133
       O     5.24164   18.34121   -5.07248
      H1     4.34067   18.02189   -4.81931
       H     6.01505   14.05798  -12.10583
       O     5.57803   13.81149  -11.28009
      H1     4.82701   14.40719  -11.15312
       H     7.01022   17.02329   -5.13515
       O     7.97511   16.84760   -5.15422
      H1     8.35318   17.46540   -5.79866
       H     1.72492   14.11588   -3.36931
       O     0.94411   14.09466   -3.94446
      H1     1.09846   14.72450   -4.59919
       H     3.97209   14.87858   -4.48249
       O     4.03572   14.73490   -5.45162
      H1     3.98054   13.82055   -5.73188
       H    -1.10418   16.60471   -5.90140
       O    -0.61087   15.81702   -6.27873
      H1    -1.25929   15.11439   -6.41085
       H    -4.48971   19.63816   -5.54290
       O    -3.92133   19.09600   -6.03341
      H1    -4.22397   18.23931   -5.74234
       H     2.67060   13.73762  -13.84690
       O     2.38876   13.73771  -12.88489
      H1     1.50846   13.27407  -12.89422
       H     5.97350   13.24925   -7.73387
       O     5.35678   12.84209   -7.14765
      H1     5.27513   11.95480   -7.50983
       H    -3.64862   14.41592   -8.13700
       O    -3.49888   14.17595   -9.05155
      H1    -2.87530   14.85191   -9.32384
       H    -2.20315   16.42437  -11.93000
       O    -2.69498   16.20449  -12.71058
      H1    -3.57611   16.34883  -12.37787
       H    -0.27666   12.77313   -4.06846
       O    -0.80746   12.06789   -4.56719
      H1    -1.18633   11.47944   -3.83408
       H    -3.49383   13.60812   -5.26689
       O    -2.79352   14.33679   -5.36792
      H1    -2.21011   14.34946   -4.57990
       H    -1.73364   11.70724  -10.10401
       O    -2.26144   11.77751   -9.25886
      H1    -2.70802   12.59472   -9.39309
       H    -0.67124   15.74838   -9.82663
       O    -1.46922   16.09548  -10.21886
      H1    -1.69546   16.89174   -9.69567

