132
frame 11 | Written by MDAnalysis XYZWriter (release 2.4.3)
       H    -7.26626   -9.73762    3.91724
       O    -6.63633   -9.53459    4.61060
      H1    -7.04906   -8.79855    5.10936
       H   -13.02573  -11.35076    9.05868
       O   -13.52313  -11.74721    8.31998
      H1   -13.91554  -10.97974    7.95677
       H    -6.67884  -10.62094    0.43964
       O    -6.32785  -11.45836    0.32915
      H1    -6.45348  -11.68433   -0.64814
       H    -8.04906   -8.54210    9.22382
       O    -8.97398   -8.45142    8.83358
      H1    -9.24877   -9.39696    8.71602
       H    -9.49405  -12.26284    7.48121
       O    -9.54127  -12.37966    6.53613
      H1   -10.51123  -12.57585    6.41382
       H    -8.72993   -8.82720    1.85553
       O    -8.02626   -9.41209    2.10611
      H1    -7.23911   -8.85210    1.97379
       H    -9.69469  -11.99856   10.00349
       O    -8.92750  -11.48414    9.79735
      H1    -8.23240  -12.13763    9.73996
       H    -7.97366  -10.86963   11.60239
       O    -7.53687  -10.94455   12.46170
      H1    -6.58850  -10.80985   12.22784
       H   -10.33312   -8.57102   11.49164
       O   -10.36769   -9.50759   11.79904
      H1   -11.13057   -9.83733   11.25264
       H   -11.81266   -5.22712    3.09960
       O   -12.19679   -5.19543    4.03268
      H1   -11.43695   -5.60327    4.56004
       H   -10.96845  -12.68948    0.32921
       O   -11.47815  -13.01201    1.12100
      H1   -10.67823  -13.09972    1.66072
       H    -8.06663  -16.30771    7.04053
       O    -9.00207  -16.67530    6.97990
      H1    -9.38856  -16.17175    7.69296
       H    -5.14898  -10.06622    3.85510
       O    -4.34362  -10.62892    3.69724
      H1    -3.64058  -10.31091    4.25430
       H    -5.15553   -7.74276    3.74260
       O    -4.67312   -7.14025    4.36282
      H1    -4.52160   -6.42302    3.77194
       H   -11.10768   -9.65975    1.63839
       O   -10.86152   -8.73865    1.43040
      H1   -10.64810   -8.74955    0.50695
       H    -5.76932   -8.44680   10.00246
       O    -6.35735   -8.58891    9.24822
      H1    -5.81013   -8.95257    8.57927
       H   -14.15315  -13.06002    1.62907
       O   -14.46337  -13.70214    2.24273
      H1   -13.69112  -14.02221    2.73051
       H   -11.23430  -16.24641    2.93954
       O   -10.32638  -16.44229    2.82471
      H1    -9.93264  -15.93225    2.08645
       H    -4.18918  -12.32226    2.41751
       O    -4.00489  -13.26132    2.33051
      H1    -4.35248  -13.46993    1.45815
       H   -11.45398  -10.35610    4.03135
       O   -12.32710  -10.53104    3.68705
      H1   -12.74707  -10.76375    4.51389
       H    -9.63826   -7.34998    9.87880
       O   -10.08316   -6.86738   10.63232
      H1    -9.46364   -6.17619   10.73568
       H    -9.64077  -10.91079    5.35911
       O    -9.65699  -10.13815    4.70430
      H1    -8.89052  -10.17281    4.15362
       H   -13.31571   -9.99134   10.96561
       O   -12.62260   -9.82609   10.33342
      H1   -12.59694   -8.85697   10.22100
       H    -7.66157  -14.71438    3.67105
       O    -7.00203  -14.85538    4.32793
      H1    -7.10092  -15.69979    4.72104
       H   -13.89493   -7.62065    5.68645
       O   -13.12216   -8.05673    6.16505
      H1   -13.19238   -7.72969    7.08619
       H   -15.36786   -8.99187    2.43660
       O   -15.08110   -9.88889    2.62004
      H1   -14.11803   -9.80964    2.78562
       H    -9.92813   -7.07681    5.83791
       O   -10.78097   -6.61152    5.88044
      H1   -11.52454   -7.18942    5.81785
       H    -3.93271   -9.14010    6.89402
       O    -4.81592   -9.54726    6.98992
      H1    -4.99939  -10.06883    6.19543
       H   -11.10570  -14.37414    9.56548
       O   -11.08608  -13.50695    9.93835
      H1   -11.78839  -13.46551   10.59168
       H   -15.21280  -12.42317    3.49688
       O   -15.69182  -12.60056    4.29846
      H1   -15.44907  -11.82226    4.81437
       H    -6.00073  -14.42696    8.40206
       O    -5.73431  -15.28900    8.10811
      H1    -5.47772  -15.62890    8.96695
       H    -7.63525  -12.94236    1.57713
       O    -8.03173  -13.76992    1.85834
      H1    -8.25897  -14.25650    1.04960
       H   -10.66795   -5.51360    7.41989
       O   -10.06055   -4.98383    7.99625
      H1   -10.76947   -4.36306    8.22666
       H   -12.43276  -12.44689    6.96245
       O   -12.02011  -12.76231    6.16383
      H1   -12.42705  -13.63927    6.08784
       H   -15.78400  -10.49706    6.55188
       O   -14.81006  -10.44624    6.33918
      H1   -14.60210   -9.49331    6.29233
       H    -4.90015   -4.77566    6.48548
       O    -5.75770   -5.31551    6.49765
      H1    -5.42236   -6.14690    6.19838
       H   -14.66545  -13.82072    5.17637
       O   -13.99175  -14.46873    5.45541
      H1   -14.41866  -14.88080    6.27029
       H    -6.67050  -12.77160    5.33332
       O    -6.96444  -12.32210    6.11446
      H1    -7.89050  -12.61040    6.19296
       H    -5.45483  -12.31825    9.00363
       O    -6.35834  -12.62485    8.83642
      H1    -6.50726  -12.39414    7.89688
       H    -4.80196   -9.35467    2.23118
       O    -5.26482   -8.51260    2.07139
      H1    -4.75564   -8.11155    1.37081
       H    -8.45188   -8.08719    6.82941
       O    -8.59451   -7.92643    5.91687
      H1    -9.10582   -8.69850    5.62010
       H   -13.75473  -16.79353    3.21905
       O   -13.06864  -16.26056    3.53564
      H1   -13.33692  -15.85082    4.36115
       H    -2.82154  -11.35967    8.37011
       O    -3.73231  -11.62013    8.42433
      H1    -4.20496  -10.92576    8.01604
       H   -13.18481   -7.44622    0.24080
       O   -13.21131   -7.11322    1.13453
      H1   -12.52993   -7.55427    1.61968

