132
frame 3 | Written by MDAnalysis XYZWriter (release 2.4.3)
       H   -14.22272  -11.42338   10.19433
       O   -14.07727  -12.05917    9.44812
      H1   -14.53793  -11.68192    8.68563
       H   -14.21139   -7.88046    8.05589
       O   -15.17478   -8.06476    8.22864
      H1   -15.53526   -7.20587    8.60011
       H    -9.34108  -17.44006    7.03544
       O    -9.31369  -17.66761    6.08122
      H1    -8.62661  -18.30463    5.97444
       H    -9.36185  -17.08277    2.61255
       O    -8.49376  -17.49172    2.76144
      H1    -8.56029  -17.84542    3.62483
       H    -7.59037  -12.12813    5.97649
       O    -7.36052  -11.62575    5.14407
      H1    -8.01879  -11.88578    4.43542
       H    -8.52166   -8.07780    3.59043
       O    -9.14057   -8.30749    4.28301
      H1    -9.65031   -9.08530    4.05547
       H   -10.45064  -10.42443   10.55515
       O    -9.66809  -10.33180    9.96879
      H1   -10.02985  -10.44018    9.07591
       H    -8.40030  -12.31673   10.66814
       O    -7.89599  -12.70903   11.35691
      H1    -7.11670  -12.21042   11.51843
       H   -18.61349  -15.13425    5.18599
       O   -19.17053  -14.47761    5.56930
      H1   -20.03299  -14.86785    5.70881
       H   -12.72146  -10.11575   11.46318
       O   -11.93942  -10.48617   11.83196
      H1   -12.13920  -11.39479   11.86775
       H   -16.20323   -9.09581    5.42259
       O   -16.16945   -9.56344    6.25705
      H1   -16.12557   -8.77343    6.91508
       H   -17.72791  -13.17694    3.90656
       O   -16.97480  -12.71180    3.52325
      H1   -16.28986  -12.85157    4.26619
       H    -9.41150  -12.97036    3.14582
       O    -8.68941  -12.32563    3.00367
      H1    -8.29987  -12.75429    2.24671
       H   -17.85911  -15.78492   11.22624
       O   -17.25503  -15.71427   12.00359
      H1   -16.74744  -14.93560   11.85785
       H   -11.12538  -14.11962    9.32299
       O   -10.95501  -14.63164   10.13993
      H1   -11.09855  -15.53372   10.06963
       H   -16.23645  -17.42218    3.88296
       O   -15.53510  -17.66166    3.26313
      H1   -15.38109  -18.57822    3.12986
       H   -12.53727  -19.58050    5.36987
       O   -13.15911  -18.82624    5.18220
      H1   -12.91403  -18.33522    4.39830
       H   -14.48185  -13.92330    9.75909
       O   -15.28013  -14.50597    9.86870
      H1   -14.87223  -15.18995   10.44511
       H   -13.46044  -12.10939   13.23561
       O   -14.13073  -11.54220   13.60179
      H1   -14.91866  -11.53487   13.05911
       H   -18.81392  -12.68243    6.54889
       O   -18.95002  -11.83133    6.95459
      H1   -18.30356  -11.73463    7.71546
       H   -10.82778  -10.99174    4.32097
       O   -10.64665  -10.57290    3.45553
      H1    -9.95328  -11.09004    2.95479
       H   -14.82962  -13.61931    1.04806
       O   -14.02126  -13.15239    0.63428
      H1   -13.80446  -12.54562    1.35876
       H   -11.65770  -16.61252    2.18716
       O   -10.89750  -16.52508    1.52178
      H1   -11.18797  -15.81105    0.90196
       H   -11.15201  -14.33045    4.86573
       O   -10.38184  -13.89503    4.70130
      H1    -9.68408  -14.54555    4.86572
       H   -14.73016  -15.49646   12.72626
       O   -14.55285  -14.67717   13.22945
      H1   -15.19765  -14.39246   13.85816
       H   -11.23924  -12.08559    6.53085
       O   -11.07329  -11.19880    6.14158
      H1   -10.11566  -10.94249    6.31185
       H   -12.81316  -18.29271    7.25024
       O   -13.05801  -18.02406    8.13872
      H1   -13.41895  -18.81031    8.66217
       H    -7.92986  -10.25341    6.05703
       O    -8.34752   -9.52691    6.61450
      H1    -8.86757   -9.07382    5.89754
       H   -14.02878   -8.46021   11.30424
       O   -14.28204   -9.32860   10.85198
      H1   -14.51555   -8.94834    9.97724
       H    -8.47099  -16.28526    5.86748
       O    -8.10128  -15.42198    5.67251
      H1    -7.90617  -15.02327    6.55555
       H   -13.83338  -10.67037    2.51642
       O   -13.28326  -11.45025    2.60788
      H1   -12.46108  -10.99750    2.92203
       H   -11.62912  -13.45455   11.53552
       O   -12.19658  -13.14210   12.28263
      H1   -12.75450  -13.92851   12.43920
       H   -13.88889  -12.34721    3.92753
       O   -14.29116  -12.90858    4.60995
      H1   -14.15326  -12.41264    5.43789
       H   -17.08645  -13.41505    9.17302
       O   -17.49347  -12.54335    9.29222
      H1   -16.89916  -12.08866    9.94709
       H   -14.46734  -16.84980    7.90745
       O   -15.21706  -16.33701    7.51350
      H1   -15.46680  -15.65275    8.12644
       H    -9.51397  -15.49117    8.91288
       O    -8.70427  -15.73708    8.44584
      H1    -8.01692  -15.60511    9.13436
       H   -17.92820  -17.48027    5.31902
       O   -17.40360  -16.73765    4.95812
      H1   -16.59630  -16.70625    5.54989
       H   -12.80176  -12.84428    8.20967
       O   -12.12147  -13.18557    7.65319
      H1   -12.51894  -13.88544    7.09855
       H   -14.77748  -10.61150    6.58357
       O   -14.17718  -11.36296    6.75527
      H1   -13.27432  -11.08176    6.83662
       H   -13.77999  -14.51719    5.19185
       O   -13.34571  -15.23522    5.65199
      H1   -14.05572  -15.63199    6.09947
       H   -10.83726  -17.93084   10.38023
       O   -11.58159  -17.32670   10.34913
      H1   -12.08933  -17.49139    9.56266
       H    -8.01238  -13.66472    7.92408
       O    -7.50975  -12.91334    7.62758
      H1    -6.55066  -12.98958    7.89218
       H   -13.63431  -16.98003    3.16863
       O   -12.76942  -16.72341    3.41666
      H1   -12.96053  -16.16976    4.20174
       H   -15.71757  -16.64852   11.66689
       O   -14.77928  -16.78327   11.66549
      H1   -14.54154  -17.76024   11.73461

