132
frame 5 | Written by MDAnalysis XYZWriter (release 2.4.3)
       H     1.21456   17.38110  -10.16670
       O     1.77974   16.71976  -10.54155
      H1     2.34505   16.47968   -9.73481
       H    -0.58606   16.87479   -3.77055
       O    -1.03609   16.52197   -2.96776
      H1    -1.50982   17.25904   -2.53706
       H    -7.15537   11.17837  -12.29451
       O    -7.25064   12.18214  -12.27589
      H1    -8.13262   12.32681  -11.86001
       H    -4.84484   13.83768  -11.15064
       O    -5.43889   13.25454  -10.63226
      H1    -6.16295   13.03415  -11.26880
       H    -3.33906   16.99173  -12.86014
       O    -3.02455   17.79172  -13.27393
      H1    -3.10408   17.64788  -14.22218
       H     0.20503   16.35047  -13.42838
       O     0.45520   15.70611  -12.76790
      H1     0.48069   16.27403  -11.97894
       H   -10.14996   16.72316   -9.38420
       O   -10.52282   17.05519  -10.25236
      H1    -9.79112   16.98599  -10.91986
       H    -7.54583   11.46865   -4.21827
       O    -7.55043   12.44839   -4.25315
      H1    -7.38254   12.66956   -5.18868
       H    -0.99190   18.74054  -10.57541
       O    -0.99490   18.33981   -9.70166
      H1    -1.91757   18.46789   -9.37135
       H     0.45981   17.13585   -6.08121
       O     0.74049   17.19916   -5.15759
      H1     1.31118   17.98646   -5.03721
       H    -1.52123   13.39152  -13.11586
       O    -1.63643   14.11111  -12.43875
      H1    -0.95381   14.76711  -12.61232
       H    -6.58060   14.49048   -9.77258
       O    -7.43251   14.77701   -9.45590
      H1    -7.29809   15.70805   -9.24146
       H    -8.97114   17.84875  -13.31332
       O    -8.73902   17.70172  -12.39182
      H1    -7.87577   17.25407  -12.27621
       H   -10.16856   16.64599   -6.70830
       O   -10.85495   16.50137   -7.39759
      H1   -11.58516   17.08389   -7.06326
       H     0.81962   13.97311   -7.33817
       O     0.37708   14.01811   -8.20881
      H1     1.01127   13.74334   -8.85028
       H    -5.80082    9.62234   -9.40713
       O    -5.85297   10.40495   -8.89151
      H1    -5.06304   10.93891   -9.04457
       H     1.39395   17.64578  -15.19728
       O     0.43171   17.69974  -14.86710
      H1     0.40161   18.16713  -14.09234
       H    -8.55240   18.26514   -6.19669
       O    -8.75927   17.36337   -6.03421
      H1    -7.94561   16.93165   -6.33507
       H    -5.56390   15.93226  -11.99328
       O    -6.28686   16.47415  -12.41471
      H1    -5.80615   16.80138  -13.20798
       H    -1.91937   11.96566  -10.21981
       O    -1.00720   12.27483  -10.45855
      H1    -1.11546   13.01963  -11.06549
       H    -3.64127   16.54850   -4.92944
       O    -4.43060   17.07784   -5.03919
      H1    -4.49946   17.53680   -4.18488
       H    -4.39191   12.09680   -3.58540
       O    -4.65683   12.93701   -3.94529
      H1    -5.67471   12.88988   -3.99246
       H    -6.76352   16.97998   -8.49134
       O    -7.06873   17.58381   -9.16006
      H1    -6.34379   18.25022   -9.12355
       H    -8.49077   18.00377   -4.07609
       O    -8.35401   17.85551   -3.14239
      H1    -7.93992   18.67654   -2.83161
       H    -0.21077   10.38618   -7.98692
       O    -0.65122   11.24199   -7.74399
      H1    -0.30286   11.81491   -8.46602
       H    -6.16751   15.23415   -6.70904
       O    -6.26825   16.17942   -6.75687
      H1    -5.71256   16.49273   -6.01721
       H    -2.57276   10.34341   -6.99391
       O    -2.63189    9.40576   -6.82882
      H1    -3.46408    9.20779   -6.48624
       H    -9.56950   13.15163   -8.54736
       O    -9.45356   12.98017   -7.57622
      H1   -10.27932   13.34146   -7.25228
       H    -1.54036   18.63296  -12.87746
       O    -0.80165   19.04628  -12.32358
      H1    -0.36855   19.66169  -12.92870
       H    -6.30141   13.55214  -13.55850
       O    -6.25607   14.40424  -14.01945
      H1    -6.50288   15.12519  -13.43157
       H     1.89915   12.84573  -11.19054
       O     2.21314   13.58858  -10.66441
      H1     1.86821   14.35406  -11.14692
       H     1.94081   18.54468   -7.67133
       O     2.90499   18.38434   -7.43963
      H1     3.24962   19.32336   -7.47952
       H    -4.07261   18.60199   -2.07418
       O    -4.76136   18.33894   -2.71768
      H1    -5.45056   18.00204   -2.15059
       H    -5.92281   12.42943   -6.79246
       O    -6.51481   13.25877   -6.81415
      H1    -7.34140   12.98672   -7.14634
       H     1.12160   14.81733   -5.34557
       O     1.38479   13.97871   -5.66072
      H1     0.79800   13.29608   -5.32577
       H    -3.02707   20.17020   -5.52510
       O    -2.77631   19.33991   -5.93707
      H1    -3.19280   18.64973   -5.41242
       H    -2.19180   14.11506   -6.96105
       O    -2.27558   14.03726   -7.89526
      H1    -1.37215   14.04301   -8.24622
       H    -3.06542   14.83851  -11.92821
       O    -3.91259   15.23479  -11.73513
      H1    -3.79473   15.43228  -10.76991
       H    -3.35373   14.16875   -4.64637
       O    -2.77901   14.94205   -4.95744
      H1    -2.08271   14.99962   -4.25201
       H    -4.03007   12.39533  -10.04129
       O    -3.42883   11.84657   -9.48164
      H1    -2.91562   12.46764   -8.93046
       H    -3.29602   15.47673   -8.39763
       O    -3.67740   16.08173   -9.03598
      H1    -3.71537   16.91761   -8.56371
       H   -10.20015   13.59192  -10.77932
       O    -9.39889   13.08018  -10.38657
      H1    -8.75367   13.75865  -10.28342
       H    -4.08386   19.60404   -9.07714
       O    -3.68242   18.82664   -8.66429
      H1    -3.22159   19.18591   -7.89158
       H     0.30445   15.83950   -8.07122
       O     0.33922   16.81388   -7.94454
      H1    -0.30370   17.22989   -8.51196

