132
frame 1 | Written by MDAnalysis XYZWriter (release 2.4.3)
       H    -6.92956    5.66922  -17.85782
       O    -6.22968    5.56755  -17.21147
      H1    -5.35238    5.30413  -17.65901
       H     3.22627    3.05165  -10.64918
       O     3.82344    2.27055  -10.62910
      H1     4.41014    2.38946   -9.85870
       H    -0.14751    1.34422   -8.40566
       O     0.69980    1.23392   -9.00861
      H1     0.47139    1.86247   -9.71307
       H    -0.46120    6.01621  -14.11959
       O    -0.72048    5.10358  -14.19846
      H1    -0.84694    4.99754  -13.27639
       H    -3.60619    5.94039  -11.32539
       O    -4.19141    5.23893  -11.62971
      H1    -4.82216    5.62601  -12.27434
       H     4.87729    5.20259  -19.39936
       O     4.13851    4.85138  -18.92336
      H1     4.06322    5.39278  -18.14736
       H    -5.83229    7.28556  -17.21175
       O    -5.77125    8.23996  -17.40152
      H1    -5.50319    8.65791  -16.56879
       H    -6.36728    4.24056  -14.42823
       O    -6.13155    5.14492  -14.17036
      H1    -5.19463    5.24259  -14.35097
       H    -0.94583    7.65428  -17.92272
       O    -0.79095    8.00615  -17.03855
      H1    -0.95899    8.97256  -17.05724
       H     1.86199    9.43803  -18.50739
       O     1.55757   10.13837  -19.11971
      H1     2.02778    9.89656  -19.94427
       H     0.33452    7.42818   -9.70411
       O     0.26865    6.68502  -10.33634
      H1     0.99456    6.09641  -10.03704
       H     1.66704    3.37973  -14.54044
       O     2.02643    3.20843  -13.68080
      H1     1.25659    3.08132  -13.11552
       H    -0.31706   10.59635  -15.60161
       O    -0.82096   10.43892  -14.83108
      H1    -1.69970   10.43519  -15.21121
       H    -0.17440    3.90944  -18.24322
       O     0.16259    4.19521  -19.17349
      H1     1.05463    4.51348  -19.06594
       H    -0.08448    2.05976  -12.00028
       O     0.11360    2.90726  -11.47532
      H1    -0.76240    3.36479  -11.36814
       H    -5.66389    2.15351  -18.77326
       O    -4.78380    2.29004  -18.46351
      H1    -4.81770    2.03177  -17.54025
       H     3.22519    5.06776   -9.80844
       O     2.65044    4.74578  -10.50350
      H1     2.83410    5.28707  -11.29270
       H     1.15372   -1.62316  -15.99036
       O     1.24631   -1.74829  -16.96508
      H1     0.64831   -1.12452  -17.34002
       H     5.48453    7.03175  -16.76909
       O     4.60924    6.62741  -16.86718
      H1     4.04718    7.38465  -16.66946
       H    -3.83874    5.33001  -18.91675
       O    -3.73820    4.78396  -18.12073
      H1    -3.95570    3.82251  -18.27484
       H     0.75494    7.13811  -11.98669
       O     0.87129    7.23666  -12.90426
      H1     1.76155    6.83920  -13.10813
       H     0.08709   -0.31868  -13.31981
       O    -0.44196    0.49456  -13.19338
      H1    -1.34141    0.23365  -12.77504
       H     1.37575    8.52870  -16.69174
       O     2.29448    8.71801  -16.92909
      H1     2.70504    9.22016  -16.17861
       H     2.89005    0.84390  -11.36267
       O     2.57641    0.04448  -11.81472
      H1     2.42873    0.24904  -12.73792
       H    -1.74939    6.60216  -10.28721
       O    -2.53420    7.06360  -10.60435
      H1    -2.17909    7.55882  -11.37642
       H     3.63452    0.58401  -14.13321
       O     2.82458    0.90062  -14.57314
      H1     2.56530    1.68263  -14.05762
       H    -3.00976    2.13856  -11.90020
       O    -2.55778    3.06748  -11.88101
      H1    -3.23881    3.74124  -11.62717
       H    -2.40404    1.22392  -19.91999
       O    -2.28845    0.25006  -19.86388
      H1    -2.27878    0.01017  -18.92778
       H    -3.21054   -0.77013  -12.19016
       O    -2.72960    0.03379  -11.87369
      H1    -2.24291   -0.43744  -11.11865
       H    -0.55187    2.53634  -16.41446
       O    -0.30635    3.47293  -16.67321
      H1    -0.34019    4.07386  -15.92810
       H     1.46533   -2.30365  -13.61969
       O     0.86976   -1.79264  -14.20238
      H1    -0.01781   -2.12092  -14.05831
       H    -3.22177    4.56034  -16.18810
       O    -3.45991    4.52012  -15.23363
      H1    -2.60162    4.41744  -14.80472
       H    -6.37745    4.06749  -16.07496
       O    -6.60888    3.15482  -15.85495
      H1    -7.57931    2.98864  -16.11462
       H    -1.41393    0.08762  -16.18378
       O    -1.14194    1.01512  -15.95509
      H1    -0.65998    0.95214  -15.13787
       H    -2.93733    1.67299  -15.84816
       O    -3.81957    1.99407  -15.66616
      H1    -3.73029    2.87606  -15.33505
       H    -1.48205   -2.05552  -17.88637
       O    -1.96544   -1.36575  -17.44733
      H1    -2.64390   -1.86215  -16.92280
       H    -2.11494    6.72122  -19.42294
       O    -1.15341    6.63046  -19.42267
      H1    -0.91457    5.70675  -19.40429
       H    -3.18469    8.16735  -13.64556
       O    -3.94305    7.75571  -14.09597
      H1    -3.60389    6.95458  -14.46127
       H     5.74281    6.01364  -14.82723
       O     5.61811    5.06799  -14.61571
      H1     6.01730    5.01822  -13.73783
       H     2.73080   -0.92292  -17.14032
       O     3.49510   -0.38927  -16.97241
      H1     3.24448    0.15210  -16.20033
       H    -0.77802    8.59105  -12.81412
       O    -1.74143    8.71489  -12.57090
      H1    -1.81733    9.67807  -12.32392
       H     1.92452   10.08338  -11.84744
       O     2.19502    9.45420  -12.54825
      H1     1.49361    8.71551  -12.57021
       H    -5.55498    2.13023  -14.24121
       O    -5.71324    1.61512  -13.42990
      H1    -4.77273    1.35116  -13.30323
       H     2.67797    4.91611  -13.25199
       O     3.17961    5.71600  -13.18592
      H1     4.05697    5.53101  -13.55048

