132
frame 11 | Written by MDAnalysis XYZWriter (release 2.4.3)
       H    -4.99047   -9.29681  -17.83055
       O    -5.81863   -9.63764  -18.20333
      H1    -5.91143   -9.09993  -18.95541
       H    -2.39279   -4.81322  -18.47680
       O    -3.11783   -5.41687  -18.32791
      H1    -3.90276   -5.19449  -18.90874
       H    -1.95609   -2.84688  -15.03469
       O    -1.49936   -3.64624  -15.27551
      H1    -0.84740   -3.83371  -14.53700
       H    -2.21412   -8.12046  -14.92773
       O    -1.32849   -8.46402  -14.96119
      H1    -0.99861   -8.25959  -15.88688
       H     4.59212  -12.93109  -13.65829
       O     3.70881  -12.82028  -13.20111
      H1     3.40876  -11.90765  -13.24566
       H    -3.00053  -14.85259  -18.10168
       O    -2.78450  -13.94456  -18.32607
      H1    -2.16916  -14.01333  -19.05113
       H    -4.87591   -3.79518  -18.02535
       O    -5.59330   -4.35928  -18.46957
      H1    -5.71934   -4.01181  -19.36984
       H     3.71085  -11.56252  -17.70156
       O     3.01106  -11.15778  -18.24286
      H1     2.18277  -11.61345  -18.17846
       H    -6.42952  -11.93652  -16.43733
       O    -5.85134  -11.66314  -15.68741
      H1    -6.40263  -11.27734  -15.00946
       H     5.94722   -5.84956  -17.83520
       O     5.27277   -5.36514  -17.29424
      H1     5.49939   -5.62773  -16.36399
       H     4.21984   -9.13753  -17.93299
       O     4.32372   -8.24030  -18.27591
      H1     5.20870   -7.88877  -18.13687
       H    -0.95107  -14.36662  -15.62037
       O    -0.55694  -15.21371  -15.87813
      H1    -0.26785  -15.61798  -15.04283
       H    -3.54548   -3.18017  -16.32376
       O    -4.00353   -2.63345  -16.94849
      H1    -3.38761   -2.48785  -17.75712
       H    -0.52055   -5.76463  -17.27658
       O    -0.49314   -4.81831  -17.56807
      H1    -0.72717   -4.38705  -16.75982
       H    -3.78063  -13.68147  -16.28834
       O    -4.28002  -14.11371  -15.62995
      H1    -5.13518  -13.66429  -15.72121
       H    -0.77430  -12.97176  -18.06111
       O    -0.16579  -12.25063  -17.90945
      H1    -0.63514  -11.49628  -18.15873
       H    -2.11171   -1.31827  -19.04243
       O    -2.25236   -2.26828  -18.91949
      H1    -2.17962   -2.51533  -19.82893
       H    -3.54198  -12.33789  -19.11247
       O    -4.39819  -11.89541  -19.32677
      H1    -4.33036  -11.05513  -18.90088
       H     2.46732   -7.75297  -11.19089
       O     2.33408   -6.98802  -11.78131
      H1     1.46971   -7.14059  -12.15341
       H     0.34017  -11.27330  -11.40351
       O     0.56626  -11.36415  -10.45731
      H1     0.08473  -10.71158   -9.88717
       H    -4.12018  -11.19810  -16.12014
       O    -3.22431  -10.90838  -15.83437
      H1    -3.15244  -10.00002  -16.07245
       H     6.75066   -8.76883  -14.76940
       O     6.12344   -8.30371  -15.32629
      H1     5.34642   -8.08518  -14.76026
       H     2.94596   -9.68215  -12.73506
       O     2.69078  -10.28354  -13.45908
      H1     1.74156  -10.12311  -13.52614
       H    -3.40033  -12.44015  -11.95318
       O    -3.04137  -11.57732  -11.73181
      H1    -2.07472  -11.74843  -11.92754
       H     2.26120   -4.99251  -19.17517
       O     1.73516   -4.20296  -19.01338
      H1     1.37131   -4.36019  -18.17532
       H     1.26714   -1.24356  -15.68111
       O     0.97011   -1.96405  -16.24394
      H1     0.09450   -2.26266  -15.95126
       H    -4.20572   -7.02077  -10.52839
       O    -3.67819   -7.52477  -11.08441
      H1    -4.13326   -7.77022  -11.89122
       H    -3.94841   -9.66002  -13.27032
       O    -4.63685   -9.01331  -13.13953
      H1    -4.92580   -8.71419  -14.02433
       H     0.04926   -9.66815  -19.40782
       O    -0.63553   -9.83132  -18.73527
      H1    -1.42239   -9.70679  -19.22869
       H     3.25878   -7.42382  -14.69320
       O     3.96564   -7.33345  -14.00532
      H1     3.48864   -7.19502  -13.09883
       H     4.39680   -4.35834  -14.39078
       O     5.09247   -5.02778  -14.52377
      H1     4.61194   -5.84307  -14.53136
       H    -0.52691   -3.16410  -10.83323
       O    -0.94102   -3.06713  -11.71112
      H1    -0.35045   -3.62150  -12.21986
       H     7.04679  -11.38709  -17.01432
       O     6.11274  -11.52925  -17.25017
      H1     5.88920  -12.44097  -16.91170
       H    -2.80698   -4.77605  -15.41243
       O    -3.56155   -5.33835  -15.66790
      H1    -3.50790   -5.41108  -16.58403
       H    -3.28083   -7.36005  -17.62416
       O    -3.29442   -8.32755  -17.57510
      H1    -2.83462   -8.50814  -18.45048
       H    -5.04675   -6.93314  -15.72816
       O    -5.39922   -7.78167  -15.65947
      H1    -6.30244   -7.77962  -15.95842
       H     3.10837   -7.53871  -16.98781
       O     2.42912   -7.35571  -16.29228
      H1     2.42208   -6.39285  -16.23106
       H     3.27402   -4.67946  -16.49479
       O     2.45638   -4.55590  -16.01652
      H1     1.96422   -3.76972  -16.33506
       H    -0.67608  -12.02562  -15.83193
       O    -1.08365  -12.32423  -15.01454
      H1    -1.95808  -11.86913  -15.07819
       H    -6.71760  -13.72490  -18.42722
       O    -6.93913  -12.76124  -18.24798
      H1    -6.07212  -12.28957  -18.30173
       H    -0.55643   -7.44468  -12.10691
       O    -0.21121   -7.20912  -12.98679
      H1    -0.57643   -7.71005  -13.70931
       H     0.14886   -5.54032  -13.54151
       O     0.46368   -4.60513  -13.71465
      H1     1.28637   -4.69249  -14.19773
       H    -0.25921   -8.32298  -17.81047
       O    -0.20481   -7.55087  -17.27629
      H1     0.69475   -7.50658  -16.93324
       H    -0.43483  -11.32204  -13.81681
       O    -0.14957  -10.75493  -13.05943
      H1    -0.72096   -9.99018  -12.95007

