132
frame 6 | Written by MDAnalysis XYZWriter (release 2.4.3)
       H     0.71270   17.40825  -10.46742
       O     1.47528   17.20107  -11.06401
      H1     2.18411   16.76454  -10.51261
       H    -9.01481   19.45953   -7.26246
       O    -9.05692   19.31611   -6.30297
      H1    -9.92364   19.45925   -5.88444
       H    -1.02201   16.24016   -3.72080
       O    -1.75929   15.82172   -3.23098
      H1    -1.88894   16.48217   -2.55036
       H    -3.97080   14.33227  -11.03071
       O    -4.57063   13.60440  -11.01412
      H1    -4.36242   12.96366  -11.66655
       H    -2.62262   16.47438  -12.71257
       O    -2.81754   17.01727  -13.48674
      H1    -2.88740   16.38304  -14.22511
       H    -3.44829   19.27255  -14.39793
       O    -4.27519   19.79796  -14.37666
      H1    -4.84607   19.52442  -13.66756
       H     2.74616   18.82950   -4.05679
       O     2.19898   18.88088   -3.21667
      H1     1.65696   19.66747   -3.33139
       H     0.79557   16.02098  -13.42455
       O     1.17774   15.22894  -13.01103
      H1     1.32924   15.51021  -12.08364
       H    -9.72485   17.21852   -9.60352
       O   -10.09213   17.31892  -10.50787
      H1    -9.31399   17.68330  -10.96119
       H    -1.20658   18.96688  -11.00830
       O    -1.18788   19.20985  -10.04709
      H1    -2.11858   19.29000   -9.82781
       H    -0.05534   17.24904   -5.57014
       O     0.44033   16.99369   -4.78985
      H1     0.89054   17.85677   -4.60762
       H    -5.35371   18.97441   -2.53553
       O    -6.02218   19.53936   -2.22853
      H1    -5.96266   20.40882   -2.62140
       H    -0.79575   18.37960  -15.07237
       O    -1.47375   18.88248  -15.51574
      H1    -1.56381   18.27712  -16.29309
       H    -1.69646   14.00479  -13.33018
       O    -1.07520   13.85056  -12.60994
      H1    -0.30663   14.25274  -12.91708
       H    -6.05524   14.68577  -11.05186
       O    -6.68812   15.45125  -11.16765
      H1    -6.18706   16.26404  -10.95770
       H    -8.61782   18.40575  -12.87464
       O    -8.00032   18.22634  -12.11951
      H1    -7.43424   17.44062  -12.27821
       H    -9.33093   18.96831   -9.44996
       O    -8.67487   19.58512   -9.21380
      H1    -7.84755   19.14634   -8.98159
       H   -10.14846   16.78054   -6.73380
       O   -10.83598   16.53854   -7.38562
      H1   -11.61828   16.58144   -6.82777
       H     0.95539   14.63585   -7.21769
       O     0.33753   14.30695   -7.87041
      H1     0.62642   13.39335   -7.97853
       H     4.08307   17.84851  -12.36660
       O     3.52313   18.63017  -12.19703
      H1     2.74463   18.22332  -11.83637
       H     1.47904   17.82337  -14.78345
       O     0.59645   17.58406  -14.38721
      H1     0.51259   18.18798  -13.69037
       H    -8.56496   17.68042   -5.98816
       O    -8.53918   16.74397   -5.76438
      H1    -7.84965   16.28984   -6.30151
       H    -4.71492   17.13978  -14.09450
       O    -5.60416   16.98476  -13.78209
      H1    -6.25386   17.22841  -14.48664
       H    -4.12644   15.72885   -5.28062
       O    -4.33106   16.57511   -5.71423
      H1    -4.96185   16.94253   -5.07088
       H    -5.88002   17.18107   -8.83249
       O    -6.21220   18.04685   -9.14963
      H1    -5.56385   18.69679   -8.97123
       H    -8.05377   17.32502   -4.05497
       O    -7.93044   17.43521   -3.10832
      H1    -7.49837   18.31160   -2.98471
       H    -6.34295   14.61002   -6.95498
       O    -6.51870   15.50366   -7.03778
      H1    -5.71143   15.91236   -6.67921
       H    -1.58033   18.51314  -13.04716
       O    -0.78351   19.00237  -12.68157
      H1    -0.92315   19.88471  -13.03596
       H    -1.66418   17.97959   -0.81988
       O    -2.37501   18.27428   -1.39236
      H1    -3.04775   18.66510   -0.88379
       H    -6.45698   13.53788  -13.95035
       O    -5.92823   14.31891  -14.19623
      H1    -6.06596   14.98288  -13.50658
       H     2.11269   17.70542   -7.42168
       O     3.06076   17.88683   -7.24753
      H1     3.15332   18.79160   -7.57624
       H    -3.74606   17.34952   -2.25009
       O    -4.54458   17.02311   -2.66505
      H1    -5.05055   16.57726   -1.96403
       H    -6.81111   12.27769   -7.23741
       O    -7.50904   12.84339   -6.99211
      H1    -8.14258   12.84429   -7.78319
       H     1.64161   15.74466   -5.40497
       O     2.06860   15.02756   -5.96608
      H1     1.71298   14.16196   -5.67862
       H    -2.77078   19.34199   -5.40673
       O    -2.39812   18.54925   -5.83555
      H1    -2.89968   17.83409   -5.41775
       H   -11.47737   20.01547  -10.69508
       O   -12.03768   19.37675  -10.17498
      H1   -11.55149   18.53175  -10.36790
       H    -2.43895   13.73536   -6.31490
       O    -2.16573   13.88405   -7.26344
      H1    -1.20649   14.06102   -7.19279
       H    -1.93830   14.86544  -11.11155
       O    -2.55566   15.59731  -10.99512
      H1    -2.50822   15.96047  -10.06160
       H    -3.92320   13.79826   -4.13080
       O    -3.30530   14.16054   -4.80928
      H1    -2.74407   14.77863   -4.31208
       H    -3.92033   12.73893   -9.54951
       O    -3.62661   12.20022   -8.79397
      H1    -3.09060   12.86423   -8.28793
       H    -2.44163   15.76130   -7.98189
       O    -2.17920   16.51447   -8.53584
      H1    -2.62310   17.29568   -8.20000
       H    -9.75410   14.17619  -11.61081
       O    -8.87955   13.70891  -11.50737
      H1    -8.22234   14.33164  -11.28235
       H    -4.11551   19.81487   -8.47735
       O    -3.47712   19.09267   -8.36153
      H1    -2.97786   19.15729   -7.52868
       H     0.50346   16.21244   -7.95479
       O     0.61334   17.15449   -8.04187
      H1    -0.27106   17.51368   -8.29376

