132
frame 5 | Written by MDAnalysis XYZWriter (release 2.4.3)
       H    -4.44198   -8.71411    5.65286
       O    -5.15812   -8.10700    5.50309
      H1    -5.79696   -8.19422    6.20634
       H    -2.25580   -8.27370    0.71709
       O    -3.05568   -8.65392    1.11814
      H1    -3.51173   -7.92875    1.60087
       H     0.58507   -8.13024    1.77858
       O     1.12469   -8.80732    1.30874
      H1     1.93439   -8.27343    1.10390
       H    -4.70531   -7.61271   -1.15268
       O    -4.97627   -8.50357   -0.82977
      H1    -4.42834   -8.47779   -0.05084
       H    -7.59914   -5.91086    6.98598
       O    -7.69558   -4.98105    7.17591
      H1    -7.08501   -4.44196    6.71678
       H    -0.49318   -5.39679    5.82898
       O     0.11088   -6.10136    5.72953
      H1    -0.30191   -6.77884    6.30865
       H     1.05784   -5.88089    2.46770
       O     0.32561   -6.40204    2.84252
      H1     0.34138   -6.30910    3.80597
       H    -1.51990   -4.92632    0.99452
       O    -1.32907   -4.63725    0.08528
      H1    -0.37583   -4.62552   -0.01744
       H     0.31328   -3.10389    2.83931
       O     0.96054   -2.80762    3.45849
      H1     0.49771   -2.25318    4.17687
       H     1.58727   -4.42704   -1.12717
       O     1.07251   -5.19304   -0.87741
      H1     0.69866   -5.46636   -1.71725
       H     3.77591   -3.40121    5.04584
       O     4.25286   -3.44155    4.17962
      H1     3.72880   -3.96951    3.52583
       H     2.69930   -4.04401    1.60075
       O     2.55534   -4.65845    2.37464
      H1     2.08354   -4.10544    2.98320
       H    -3.48851  -10.33418    6.91298
       O    -3.05089   -9.74053    6.28136
      H1    -3.00767  -10.15135    5.38885
       H     0.11488   -3.24094    8.10875
       O    -0.59277   -2.57364    8.18691
      H1    -0.45297   -2.03586    7.43336
       H    -1.73025   -5.60820    8.86401
       O    -1.24859   -6.20579    9.53927
      H1    -1.47105   -5.70339   10.28306
       H    -5.25706   -6.03516    5.35297
       O    -5.24778   -5.09009    5.13453
      H1    -5.99279   -4.84821    4.60355
       H    -8.07699   -6.32316   -0.06165
       O    -8.19412   -5.37185    0.21260
      H1    -7.36741   -5.14593    0.62111
       H    -6.98508   -1.38168    6.17614
       O    -6.68872   -2.29908    6.11231
      H1    -7.18217   -2.57862    5.33203
       H    -0.84338   -1.09697   -1.51352
       O    -0.23305   -0.81579   -2.21268
      H1    -0.40676    0.08479   -2.37769
       H     2.86730   -0.19109    3.22323
       O     2.21940   -0.50470    2.58318
      H1     1.96216   -1.32158    2.98890
       H    -0.59100   -6.69221   -0.16122
       O    -0.87089   -7.62684   -0.19751
      H1    -0.09443   -8.12400    0.21622
       H    -1.13472   -9.31228    6.98293
       O    -0.30724   -8.76522    7.08108
      H1     0.03763   -8.93013    7.96950
       H    -5.26496   -0.23091    0.01258
       O    -5.63475   -0.37090    0.94963
      H1    -6.37312   -0.94531    0.86548
       H     0.73711   -0.40887    5.93346
       O    -0.11509   -0.76749    5.59436
      H1    -0.73780   -0.03248    5.71841
       H    -3.60754  -10.31164    3.01703
       O    -3.34216  -10.99974    3.67339
      H1    -3.96255  -11.72759    3.55603
       H    -2.51311   -7.46962    8.97149
       O    -3.16060   -8.17275    8.91304
      H1    -3.01487   -8.51860    8.02753
       H    -2.13173   -3.67133    8.07223
       O    -2.50659   -4.56840    7.97797
      H1    -3.41835   -4.56601    8.33465
       H    -4.77004   -2.12783    5.52744
       O    -3.92113   -1.75827    5.31900
      H1    -3.27585   -2.47853    5.50715
       H    -6.60155   -3.79274    3.08296
       O    -7.22456   -3.64334    3.78620
      H1    -7.82452   -2.98218    3.40085
       H    -0.13409   -9.56747    5.18069
       O    -0.06872   -9.33314    4.22488
      H1     0.54257   -8.58082    4.27061
       H    -3.24584   -4.71403    5.15454
       O    -2.32086   -4.57861    5.34934
      H1    -2.21774   -4.65234    6.33883
       H    -3.68677   -6.16246    2.57157
       O    -4.44772   -6.75906    2.43176
      H1    -4.62457   -6.97041    3.34214
       H    -3.48931   -4.64930   -1.45801
       O    -4.36764   -4.93869   -1.28262
      H1    -4.66252   -4.78441   -2.14881
       H     1.13215   -4.85702    6.91406
       O     1.40316   -4.38008    7.76933
      H1     1.42598   -5.04467    8.48124
       H    -2.03948   -1.72786    1.34873
       O    -1.47084   -2.03265    0.60487
      H1    -1.64276   -2.98911    0.53641
       H    -2.65004    0.66062    0.07366
       O    -2.33879    1.18281    0.86860
      H1    -3.12614    1.33016    1.39914
       H    -1.49502    1.95683    5.96330
       O    -1.74068    1.24577    5.36612
      H1    -1.25049    1.36599    4.52059
       H    -0.62765    0.98045    2.09120
       O     0.08926    1.31265    2.69850
      H1     0.85308    0.73930    2.45182
       H    -6.29774  -10.56129    3.72483
       O    -6.33495   -9.65671    3.36905
      H1    -5.99966   -9.19311    4.13848
       H    -3.96059   -1.79006    3.56002
       O    -3.90692   -2.10247    2.56768
      H1    -4.50106   -1.60013    2.02311
       H    -3.19793   -4.12582    2.35420
       O    -2.59241   -4.82450    2.52543
      H1    -1.99393   -4.60389    3.22970
       H     1.54573   -1.49803    1.17794
       O     1.45000   -2.22841    0.54857
      H1     0.55959   -2.07664    0.15277
       H    -3.53987   -1.25799   -1.35466
       O    -3.51172   -0.28829   -1.07539
      H1    -3.42477    0.21665   -1.89519
       H    -5.41017   -5.06991    1.87029
       O    -5.87045   -4.44733    1.25181
      H1    -5.46987   -4.51680    0.36533

