132
frame 3 | Written by MDAnalysis XYZWriter (release 2.4.3)
       H    16.54222   12.41008    3.49772
       O    16.24227   12.44803    2.59745
      H1    17.06257   12.40073    2.05783
       H    16.15748    6.30130    5.07903
       O    17.03101    5.84614    4.75806
      H1    17.78131    6.41499    5.04292
       H    15.61054    5.38758   11.78819
       O    15.12509    6.24186   11.81351
      H1    14.32267    6.08144   12.28968
       H    13.84694   14.63877    2.46220
       O    14.36768   14.22346    1.79338
      H1    14.99569   13.66711    2.26286
       H    14.35224    3.21219    9.22666
       O    15.15153    3.67123    9.53225
      H1    15.15785    4.55639    9.15329
       H    12.90440    9.18337    2.14407
       O    13.07483    8.21937    2.08346
      H1    13.28888    8.09590    1.13956
       H     9.39542   14.97993    8.61427
       O     8.54223   14.60764    8.48960
      H1     8.71878   13.88537    7.90663
       H    17.47154   11.26148   12.14254
       O    17.82987   11.51491   12.96174
      H1    18.29859   10.83346   13.38033
       H    16.07705   11.44077    0.11309
       O    15.87903   10.59613    0.54813
      H1    15.74506   10.81256    1.45621
       H     9.68320    9.39106   13.02465
       O    10.22969    9.44479   12.23120
      H1    10.27345    8.58105   11.84701
       H    18.49990    7.99003    8.08288
       O    18.43729    7.55467    7.20172
      H1    18.34086    8.30687    6.54580
       H    12.83717   11.70604    8.06588
       O    11.91712   11.90790    8.36455
      H1    12.07499   12.47966    9.14885
       H    14.79281   16.98754    7.29474
       O    15.46627   17.06364    7.96487
      H1    15.92476   16.22631    8.08333
       H    14.77563   10.05976    9.16773
       O    15.02203    9.47118    9.97154
      H1    14.79425    8.57985    9.61190
       H    14.06171   10.24945   11.80302
       O    13.36928   10.60867   12.35959
      H1    12.59462   10.06162   12.39285
       H    10.49032   16.67166    9.91702
       O    10.93666   16.19079    9.10885
      H1    11.88090   16.46011    9.31785
       H    11.63930    7.79919    7.15809
       O    11.49387    8.39016    6.35577
      H1    10.51202    8.33670    6.28801
       H    17.58694    8.97903    2.07956
       O    17.79865    9.31339    3.02804
      H1    18.65334    8.91505    3.28072
       H    16.18704    9.42091    4.21857
       O    15.73873    9.76749    4.98108
      H1    15.71831    9.05804    5.67092
       H    17.00341   14.30683    9.23351
       O    17.12855   15.26896    9.50774
      H1    17.46076   15.34296   10.38276
       H    16.58495   11.12483    5.28682
       O    16.96711   12.03084    5.38230
      H1    17.92282   11.90562    5.33646
       H    15.53572    6.99979    7.01608
       O    15.21605    7.33195    6.18257
      H1    14.31573    7.03511    6.02157
       H     9.67854   10.32899    5.33871
       O     9.35818    9.83628    4.59098
      H1     8.64166   10.37960    4.20864
       H     9.75713   14.53199    5.39127
       O    10.18258   13.68136    5.44418
      H1    11.15257   13.86016    5.47929
       H    17.10650   12.05665    8.70787
       O    16.70947   12.63305    8.06207
      H1    17.16622   12.66121    7.24104
       H    13.17595    7.30578    3.83094
       O    13.08153    6.63661    4.54127
      H1    12.19658    6.85266    4.80840
       H    13.58541   14.65339    6.08989
       O    12.62558   14.70710    6.07116
      H1    12.48235   14.17169    6.83665
       H    15.35276   10.97334   15.05321
       O    15.22447   10.11299   14.61217
      H1    14.65030   10.34094   13.87346
       H    15.17831   11.63796    7.50171
       O    14.52657   10.94113    7.72033
      H1    13.97243   10.80206    6.92159
       H     9.43347   12.47453   11.76559
       O     9.89075   12.02346   10.96273
      H1    10.15662   11.19770   11.33119
       H    12.54385    9.73753    5.57778
       O    13.09124   10.49694    5.32040
      H1    13.97481   10.11881    5.14919
       H    11.38312    7.04728    9.48361
       O    11.79778    6.77895    8.63544
      H1    11.49209    5.86062    8.45779
       H    10.53394   11.09742    7.49205
       O     9.75732   11.22183    6.89619
      H1     9.78749   12.14380    6.58292
       H    15.33799   15.92029   12.24841
       O    14.38437   15.93054   12.41342
      H1    14.15442   14.97973   12.59195
       H     7.94106   10.76319    7.74320
       O     7.14559   10.25318    7.97699
      H1     6.99743   10.53560    8.87545
       H    11.55611   14.68538    9.88664
       O    11.70672   13.93606   10.49474
      H1    10.93886   13.35599   10.45111
       H    17.99733   10.40101    9.91664
       O    17.27626   11.04705   10.19044
      H1    16.48497   10.50623   10.05639
       H    17.08572   17.06628    5.01482
       O    17.04866   16.09309    4.68558
      H1    17.85684   15.69329    5.01109
       H    13.82227   16.57455   10.94530
       O    13.43898   16.97947   10.09540
      H1    14.19391   17.02586    9.53129
       H    20.23761   15.30802    6.00786
       O    19.37783   15.09153    6.47789
      H1    19.17047   15.73998    7.12011
       H    15.88118   15.12431    5.58216
       O    15.43075   14.56907    6.25957
      H1    15.80955   13.70783    6.16155
       H    12.51801   13.56645   12.08921
       O    12.90995   13.52993   12.96711
      H1    13.15115   12.57371   12.93150
       H    13.82764    6.24787    8.76560
       O    14.73354    6.23177    9.07497
      H1    14.69465    6.23419   10.02838
       H    12.33147   10.72585    3.65092
       O    11.83845   10.77146    2.81179
      H1    10.95474   10.61212    3.18415

