132
frame 6 | Written by MDAnalysis XYZWriter (release 2.4.3)
       H   -10.29138  -10.31867   16.74607
       O   -11.02052  -10.37764   17.40631
      H1   -11.28044   -9.49208   17.56664
       H    -9.53261  -11.69597   19.77792
       O   -10.47513  -11.70538   19.50417
      H1   -10.56820  -11.16016   18.73885
       H    -5.57643  -17.33996   13.23184
       O    -4.87345  -16.74284   12.89349
      H1    -4.06142  -17.01197   13.33447
       H    -5.16802  -16.75012   17.70264
       O    -5.23949  -16.50174   16.77721
      H1    -6.16629  -16.63181   16.52110
       H    -6.06329   -4.70885   18.00121
       O    -6.45751   -4.88324   18.88084
      H1    -5.78195   -4.91266   19.53768
       H     0.43301  -12.07569   11.97561
       O     0.92579  -12.77457   11.56374
      H1     0.91308  -12.63435   10.59471
       H    -9.49990   -8.81021   15.95478
       O    -9.14060   -9.62522   15.69796
      H1    -8.95251   -9.56854   14.75830
       H    -8.15149  -14.28064   16.13225
       O    -7.53757  -14.97762   15.83703
      H1    -7.03836  -14.59737   15.14037
       H    -7.59348  -13.17748   11.21481
       O    -6.71528  -13.54052   11.22983
      H1    -6.36593  -13.17819   10.44277
       H    -6.25717  -14.15576   12.90351
       O    -5.73353  -14.36882   13.67636
      H1    -5.22223  -15.25163   13.49694
       H    -2.72003  -14.51632   15.17109
       O    -3.24909  -14.89715   15.93576
      H1    -4.17769  -14.70258   15.78562
       H    -3.39466  -12.13915   19.40940
       O    -4.16092  -11.54163   19.48090
      H1    -4.35184  -11.28972   18.53989
       H     0.13519   -8.80678   12.44851
       O     0.54401   -7.98052   12.42313
      H1     0.13575   -7.41859   11.75851
       H    -1.69848  -16.29003   18.69357
       O    -2.52369  -16.52859   18.22816
      H1    -2.58091  -15.80975   17.53838
       H    -2.26226   -9.35146   12.10893
       O    -1.41832   -9.70353   11.69063
      H1    -1.18829   -9.37189   10.81418
       H    -6.42682   -7.87018   15.30025
       O    -6.33819   -7.17074   14.62482
      H1    -6.89718   -7.46214   13.88212
       H    -2.92193  -10.95463   14.27760
       O    -2.71949  -11.12292   15.22037
      H1    -1.94576  -11.70774   15.16321
       H    -5.18872  -12.02357   17.12778
       O    -4.76995  -11.12643   17.06965
      H1    -4.07025  -11.22971   16.38895
       H    -3.52853  -14.13888   10.27743
       O    -2.75092  -13.63258   10.17657
      H1    -1.85988  -14.13867   10.20650
       H    -1.08064   -7.82481   17.38751
       O    -1.44039   -8.27673   18.15457
      H1    -0.68129   -8.20579   18.76659
       H    -4.39028   -7.41684   11.27491
       O    -4.86894   -6.88951   10.65862
      H1    -4.53136   -7.12000    9.77365
       H     0.37183  -10.89191   17.21706
       O     0.21558  -10.52024   16.29451
      H1    -0.37668   -9.82838   16.57967
       H    -6.51299   -7.04383   18.89261
       O    -6.83371   -7.94011   19.09497
      H1    -6.89120   -8.34295   18.26056
       H    -8.46104  -16.34178   15.71181
       O    -9.08598  -17.09251   15.43970
      H1    -8.56643  -17.60929   14.87265
       H    -3.84353  -11.31521   11.73536
       O    -3.28760  -11.81023   12.37176
      H1    -3.08256  -12.68416   11.97033
       H    -1.50281   -6.33608   15.60017
       O    -0.78782   -6.87562   15.84186
      H1    -0.04177   -6.79648   15.23988
       H    -0.84193  -10.53104   13.08581
       O    -0.30031  -11.24372   13.43409
      H1     0.01134  -10.92348   14.29096
       H     0.47555  -16.17910   19.82556
       O    -0.09049  -15.82703   19.15292
      H1     0.36525  -16.27913   18.42087
       H    -5.25354  -11.04546   13.61561
       O    -5.52401  -10.14721   13.74051
      H1    -5.83718  -10.10115   14.61705
       H   -10.05627  -13.38784   15.69033
       O    -9.67512  -13.43083   16.57905
      H1   -10.44187  -13.66754   17.19073
       H    -1.54017  -13.26225   13.56109
       O    -1.93409  -14.15979   13.61235
      H1    -1.85558  -14.60515   12.75646
       H    -6.13337   -9.84774   16.59695
       O    -6.69855   -9.06917   16.53586
      H1    -7.57148   -9.43254   16.34704
       H     0.78408  -14.79459   15.41595
       O     0.20404  -15.50893   15.07618
      H1    -0.49812  -15.01755   14.54989
       H    -4.38064   -8.80206   13.09368
       O    -3.73200   -8.20173   12.73242
      H1    -3.55997   -7.52131   13.38323
       H     2.50003  -13.87897   16.87380
       O     1.77505  -13.26665   16.60332
      H1     2.21670  -12.39847   16.42378
       H    -9.22616   -8.32599   12.77865
       O    -9.35348   -9.26467   13.03553
      H1    -9.69367   -9.67906   12.18195
       H    -8.35525   -4.75344   15.65734
       O    -7.90914   -5.48650   16.17537
      H1    -7.27946   -5.82536   15.56223
       H    -6.05847  -13.39784   18.97676
       O    -6.03787  -13.56198   18.05500
      H1    -6.33431  -14.44562   18.00653
       H    -3.34900   -6.61601   17.34584
       O    -3.38104   -5.76487   16.83447
      H1    -3.09892   -5.06488   17.40498
       H    -3.11174  -16.81210   15.13349
       O    -2.80922  -17.47476   14.46041
      H1    -1.85968  -17.44629   14.46060
       H    -3.25007  -10.57450    9.95516
       O    -4.10157  -10.62340    9.61329
      H1    -4.13277   -9.70876    9.21569
       H    -4.82489   -6.18759   14.11692
       O    -3.93574   -5.83907   14.03914
      H1    -3.73692   -5.50090   14.91441
       H    -8.66354  -11.76554   17.66389
       O    -7.80155  -11.43620   17.98933
      H1    -7.29533  -12.27487   17.92639
       H     1.08655  -12.59551   17.92617
       O     0.75371  -11.92301   18.52145
      H1     1.48280  -11.75690   19.14602

