132
frame 5 | Written by MDAnalysis XYZWriter (release 2.4.3)
       H   -10.88766  -17.02975   -8.86127
       O   -10.26791  -16.71832   -9.53244
      H1    -9.65534  -17.45930   -9.60964
       H   -12.07755  -13.44814  -16.52413
       O   -12.42072  -12.57414  -16.71819
      H1   -12.72337  -12.18822  -15.92800
       H   -10.60829  -15.48679  -16.49122
       O   -11.18385  -15.03350  -15.86659
      H1   -10.59525  -14.54043  -15.32768
       H    -7.17959  -16.60754  -13.95399
       O    -7.48489  -16.95425  -13.13673
      H1    -6.76938  -17.58646  -12.89444
       H    -6.16645  -12.07679  -15.75425
       O    -6.08267  -12.98689  -15.38182
      H1    -5.29740  -13.29140  -15.80366
       H    -6.73174  -10.49128  -10.92352
       O    -6.52200   -9.69411  -11.38113
      H1    -5.60222   -9.83803  -11.53515
       H   -11.51811  -15.24524  -11.96036
       O   -11.11911  -14.52627  -11.42721
      H1   -10.49865  -14.94754  -10.81827
       H   -10.11991  -10.10585  -13.45294
       O   -10.90911  -10.50044  -13.83833
      H1   -10.67013  -11.32094  -14.23363
       H    -9.55501  -13.50301  -12.70531
       O    -8.68354  -13.03446  -12.53602
      H1    -7.97920  -13.67671  -12.20176
       H   -14.07902   -9.96936  -12.07939
       O   -14.67731   -9.75397  -12.80154
      H1   -14.77601   -8.83810  -13.05270
       H    -6.83014  -15.55290  -12.26030
       O    -6.84181  -14.73496  -11.72123
      H1    -6.05994  -14.27162  -11.97570
       H   -10.47926  -11.86046   -9.88064
       O   -10.52589  -11.60460   -8.98100
      H1   -10.28992  -12.41554   -8.46265
       H   -12.48352  -16.79985  -13.51969
       O   -11.64894  -16.29933  -13.46845
      H1   -11.42239  -15.92461  -14.32885
       H   -10.80800  -14.93281   -7.31960
       O   -10.52326  -14.07064   -7.36112
      H1   -10.12591  -13.85918   -6.48266
       H    -7.04755   -9.78368  -14.82329
       O    -6.37563   -9.97852  -15.51814
      H1    -6.70708   -9.53448  -16.30437
       H    -4.69227  -15.65746  -14.61777
       O    -5.62577  -15.77973  -14.64422
      H1    -6.02042  -15.07830  -15.15163
       H    -9.29095  -12.77443  -14.40065
       O    -9.98836  -12.74415  -15.07936
      H1    -9.52723  -12.63110  -15.92572
       H    -5.49758  -16.04151   -7.06286
       O    -6.22386  -16.57746   -7.50355
      H1    -6.73684  -15.86196   -7.95599
       H   -14.17288  -12.50339  -13.93280
       O   -13.51244  -13.16747  -13.59530
      H1   -12.95399  -12.67850  -12.97523
       H   -12.45320  -10.18904  -10.40524
       O   -12.98788   -9.38966  -10.55170
      H1   -13.35221   -9.21733   -9.69202
       H    -3.73957  -10.29044  -12.81060
       O    -4.06366  -10.60950  -11.96059
      H1    -3.57499  -10.08972  -11.32753
       H   -10.11811   -6.89284  -10.60280
       O    -9.81906   -7.16709  -11.50698
      H1   -10.57796   -7.70898  -11.76305
       H    -5.61444  -18.50764  -10.97821
       O    -6.02546  -18.79691  -11.91161
      H1    -6.66407  -19.48755  -11.62499
       H    -5.41037  -13.07528  -13.57745
       O    -5.06611  -13.14059  -12.65476
      H1    -4.71142  -12.27112  -12.53211
       H    -8.02648   -9.97020  -12.75503
       O    -8.39379   -9.44679  -13.45999
      H1    -8.17425   -8.51136  -13.33649
       H    -7.14846   -8.32073  -10.23792
       O    -7.30619   -7.68562   -9.55716
      H1    -6.44952   -7.52333   -9.14106
       H    -3.08944  -13.63453  -16.50006
       O    -3.80654  -14.27871  -16.51182
      H1    -3.44933  -15.12927  -16.83569
       H    -3.77001  -14.60367  -12.20220
       O    -3.26418  -14.70869  -11.30813
      H1    -3.66702  -14.21204  -10.57589
       H    -4.54332   -9.34030  -14.74154
       O    -3.65506   -9.25403  -14.43491
      H1    -3.54462   -8.39124  -13.96933
       H   -11.38631  -11.32357  -12.56137
       O   -11.82535  -11.77814  -11.77522
      H1   -11.44312  -12.66158  -11.44568
       H    -3.46493  -12.48084   -8.39272
       O    -4.05777  -13.15573   -8.68216
      H1    -4.74823  -12.65713   -9.07607
       H   -12.45817   -8.59959  -13.19207
       O   -12.31959   -7.62620  -13.24881
      H1   -11.90788   -7.53142  -14.10160
       H   -15.75989  -14.81516  -13.06646
       O   -15.32730  -15.08757  -13.84895
      H1   -14.60168  -14.41317  -13.86860
       H    -2.48912  -11.59593  -11.57971
       O    -1.80733  -12.31765  -11.58144
      H1    -2.32996  -13.12042  -11.43624
       H    -9.45435  -17.33608  -16.97437
       O    -9.27678  -16.39256  -17.16894
      H1    -8.31693  -16.15354  -17.09582
       H    -7.25110  -14.93261   -9.86399
       O    -7.85080  -14.86376   -9.08077
      H1    -8.73455  -15.26296   -9.27986
       H    -6.42114  -16.34812  -18.18586
       O    -6.48292  -15.88684  -17.38029
      H1    -5.94669  -16.35557  -16.68663
       H   -10.62116  -17.86873  -13.15945
       O    -9.81314  -18.36970  -13.03861
      H1    -9.21692  -17.67927  -12.72758
       H   -11.80189  -10.80386   -8.04901
       O   -12.48789  -10.35813   -7.54440
      H1   -13.23947  -10.95903   -7.48245
       H    -8.45137  -12.94996  -18.03767
       O    -9.12762  -12.45511  -17.62249
      H1    -8.92279  -11.53765  -17.79248
       H    -7.93403   -9.02890   -8.77363
       O    -8.24973   -9.85524   -8.31384
      H1    -9.01820   -9.99825   -8.86248
       H    -6.99733  -12.88790   -9.42465
       O    -6.84867  -11.94329   -9.58987
      H1    -7.34769  -11.49133   -8.84529
       H   -13.19607  -14.09720   -9.62755
       O   -14.06237  -13.92255   -9.32451
      H1   -14.07788  -14.41933   -8.49343
       H   -12.14539   -9.59231  -16.94922
       O   -11.84867   -9.14689  -16.14603
      H1   -11.37048   -9.74067  -15.61651

