132
frame 0 | Written by MDAnalysis XYZWriter (release 2.4.3)
       H    -5.37141   11.60217  -13.44671
       O    -5.06520   12.12850  -12.73392
      H1    -5.18821   11.53121  -12.00739
       H    -4.11233   14.56976  -10.47154
       O    -4.32906   14.49814  -11.43600
      H1    -4.36745   13.62225  -11.79373
       H    -6.38927   14.16697  -15.43726
       O    -6.75696   14.30502  -16.28859
      H1    -6.14847   14.98647  -16.59244
       H    -1.36178   18.04914  -13.87791
       O    -0.89617   18.88888  -13.96269
      H1     0.02747   18.61248  -14.12831
       H    -5.00431   18.62971  -11.24919
       O    -5.87595   18.78131  -11.68608
      H1    -5.90859   19.66542  -12.03353
       H     3.12329   15.75427  -16.27078
       O     3.76913   16.07685  -16.94103
      H1     3.51340   17.03185  -17.17650
       H    -6.17297   19.64596  -15.14035
       O    -5.38677   19.28035  -14.69178
      H1    -5.45709   18.30656  -14.86058
       H   -10.03627   15.66109  -10.24743
       O   -10.68486   15.56933  -10.96227
      H1   -10.40907   16.02745  -11.77329
       H    -4.32502   16.58567  -17.94512
       O    -4.36129   15.61672  -17.86775
      H1    -4.88124   15.48094  -18.71951
       H    -2.89351   19.08003  -10.97540
       O    -3.31011   18.31511  -10.53003
      H1    -3.85866   18.67413   -9.82747
       H    -8.32624   16.32494  -18.40511
       O    -7.46182   16.76316  -18.45784
      H1    -7.06698   16.55246  -19.32147
       H    -1.30615   18.56027  -16.60483
       O    -1.89742   18.02582  -17.15252
      H1    -1.48338   17.13611  -16.91621
       H    -1.09235   12.05503  -15.42561
       O    -1.25470   12.91393  -14.93604
      H1    -1.36264   13.66473  -15.48622
       H   -11.12083   16.12764  -14.53797
       O   -11.48164   15.62388  -15.30746
      H1   -10.79388   15.04655  -15.66755
       H    -7.17193   18.14463  -17.51911
       O    -6.94284   18.99140  -17.10638
      H1    -7.42347   19.51913  -17.76923
       H    -6.01351   13.92205  -10.37452
       O    -6.81168   13.87947   -9.83648
      H1    -7.57008   13.49288  -10.39732
       H   -10.91986   17.77347  -12.90968
       O   -10.71730   16.91253  -13.30930
      H1    -9.76186   16.80360  -13.33639
       H    -6.41068    9.67878  -18.65277
       O    -6.47838   10.24295  -19.46373
      H1    -6.60721   11.20864  -19.30440
       H     1.68451   15.07620  -18.76227
       O     2.40301   15.40542  -19.22348
      H1     3.04069   15.92151  -18.69121
       H     1.77738   17.25001  -13.92549
       O     2.00429   18.10290  -14.21344
      H1     2.39230   17.96659  -15.08692
       H    -7.00792   16.31543  -13.56537
       O    -7.93110   16.16967  -13.81383
      H1    -8.10935   16.83882  -14.55514
       H    -8.39651   18.42740  -16.12655
       O    -8.99865   17.77702  -15.71799
      H1    -9.71327   18.23486  -15.29862
       H    -0.24328   11.99189  -12.16706
       O    -1.14228   11.69503  -12.28076
      H1    -1.45560   12.01687  -13.09773
       H   -13.02925   15.00440  -19.67118
       O   -13.58459   15.58267  -19.13784
      H1   -14.15621   16.11208  -19.72466
       H   -12.74129   16.74264  -17.82013
       O   -11.95900   17.21232  -17.48873
      H1   -11.95398   16.80858  -16.59319
       H    -0.95405   13.84932  -19.02371
       O    -0.35963   14.30993  -18.37988
      H1    -0.99450   14.86667  -17.84926
       H   -12.55926   13.06516  -17.42483
       O   -12.84652   13.13875  -16.50245
      H1   -12.10374   13.31831  -16.00105
       H    -8.75213   14.19825  -16.30056
       O    -9.59954   13.88937  -16.63050
      H1    -9.61232   13.01613  -16.24236
       H    -7.63815   13.29871  -19.45506
       O    -6.86290   12.94414  -18.93619
      H1    -6.86883   13.33255  -18.08395
       H   -10.70539   15.98678  -18.73800
       O   -10.35328   16.01853  -19.64628
      H1   -10.55801   16.88691  -20.10871
       H    -5.11755   18.82172  -17.53344
       O    -4.39883   18.31865  -17.96235
      H1    -3.61487   18.49173  -17.43590
       H     1.93477   18.71361  -17.56364
       O     2.66977   18.50223  -16.95849
      H1     3.31792   19.16745  -17.31877
       H    -2.47686   15.22447  -16.90246
       O    -1.76289   15.38464  -16.25671
      H1    -2.11307   15.77487  -15.46348
       H    -6.80079   13.16051  -13.01807
       O    -7.68502   13.42598  -13.31244
      H1    -7.57745   14.36600  -13.57499
       H     0.54344   17.52892  -19.86213
       O     0.57729   18.07437  -19.03756
      H1    -0.30214   18.22289  -18.73730
       H   -13.70665   18.49154  -15.84088
       O   -13.50954   18.22649  -14.93791
      H1   -13.53014   17.26301  -14.99552
       H     2.32377   13.98801  -14.68307
       O     1.53914   14.44316  -14.46282
      H1     0.86325   13.82456  -14.72042
       H    -1.73860   15.71411  -13.25520
       O    -2.07781   16.57203  -13.43184
      H1    -2.93175   16.58442  -12.91180
       H    -8.52176   13.06190  -11.78431
       O    -9.05322   12.90426  -11.01816
      H1    -9.54842   13.76300  -11.03779
       H     0.51964   12.82225  -17.92511
       O     0.95391   12.05588  -17.47198
      H1     0.88689   11.31692  -18.08016
       H    -4.94304   15.95095  -12.44592
       O    -5.23382   16.67005  -12.99226
      H1    -5.64133   17.37850  -12.42601
       H   -10.92566   19.90080  -16.59314
       O   -11.29452   19.85272  -17.50211
      H1   -11.64171   18.94493  -17.62003
       H    -0.69602   16.12282   -9.20029
       O    -1.46057   16.12335   -9.85414
      H1    -1.89547   16.98777   -9.96819
       H    -3.72725   10.16961  -16.39318
       O    -2.80193    9.97925  -16.57006
      H1    -2.63534   10.26510  -17.47238

