132
frame 2 | Written by MDAnalysis XYZWriter (release 2.4.3)
       H   -13.07575  -17.70518  -15.44347
       O   -12.21071  -17.57279  -15.87784
      H1   -12.13853  -18.42938  -16.29364
       H   -11.75748  -13.04747  -16.20069
       O   -12.06612  -13.64771  -15.47179
      H1   -11.15099  -13.90566  -15.09951
       H   -18.50657  -12.33154  -10.89199
       O   -17.63562  -12.03478  -11.15727
      H1   -17.57822  -11.09699  -10.97721
       H    -8.25109  -14.95787  -15.36178
       O    -8.85520  -14.77228  -14.61741
      H1    -8.78172  -13.81707  -14.44663
       H   -11.36910  -10.97052  -17.96388
       O   -11.99471  -11.52893  -18.34744
      H1   -12.06022  -11.19633  -19.23972
       H   -11.34851  -14.50481  -11.69749
       O   -11.22343  -13.79099  -11.04796
      H1   -10.52344  -14.08888  -10.45083
       H   -11.90647  -14.76255  -19.30066
       O   -11.58869  -13.93796  -19.70540
      H1   -11.57620  -13.26836  -19.04557
       H    -9.69911   -9.84590  -12.59795
       O   -10.40251  -10.54965  -12.75523
      H1    -9.99062  -11.23145  -13.30175
       H   -14.42429  -15.27350  -17.63512
       O   -14.62705  -15.82599  -18.40919
      H1   -13.79370  -16.32896  -18.61749
       H   -12.15873   -6.21373  -10.49207
       O   -12.68516   -5.46357  -10.17176
      H1   -12.05503   -4.73963   -9.95982
       H   -13.74804   -9.36267  -10.78597
       O   -14.28443   -9.57534  -11.56565
      H1   -15.18721   -9.30413  -11.35994
       H   -10.05714  -11.38382   -8.71776
       O    -9.33138  -11.43326   -8.00071
      H1    -9.38830  -12.24775   -7.54236
       H   -11.94754  -16.29389  -13.40142
       O   -11.06797  -16.03566  -13.08461
      H1   -10.47429  -15.70228  -13.77560
       H   -17.81440  -15.24414   -8.26247
       O   -17.13194  -15.46484   -8.90067
      H1   -16.82015  -14.58796   -9.20336
       H   -16.27696  -12.33720  -16.42537
       O   -16.47343  -13.20536  -16.13078
      H1   -16.95368  -13.11200  -15.29439
       H   -13.95857  -10.09794  -14.24416
       O   -13.62950   -9.80114  -15.07952
      H1   -14.33465  -10.11505  -15.66416
       H   -14.97585   -6.90270  -16.67969
       O   -15.89577   -7.13082  -16.82388
      H1   -16.09664   -7.50025  -17.71690
       H    -7.73093  -12.09160  -14.00291
       O    -8.63866  -12.01440  -14.34525
      H1    -8.56498  -11.66340  -15.24688
       H   -13.51029   -9.59143  -17.97366
       O   -13.30277   -8.71644  -17.65039
      H1   -13.39071   -8.78389  -16.68600
       H   -17.02016   -8.20707  -11.32245
       O   -16.95303   -9.12558  -11.01014
      H1   -17.01326   -9.00116  -10.04263
       H   -13.12180  -11.73211  -13.46042
       O   -13.92335  -11.81452  -12.92397
      H1   -13.75336  -11.17887  -12.24951
       H   -12.59642   -9.39048   -8.71791
       O   -12.92739   -8.65389   -9.29076
      H1   -13.38790   -8.00873   -8.70895
       H   -19.73121  -12.93120  -14.91659
       O   -19.95794  -13.81506  -14.61837
      H1   -19.25016  -14.08283  -14.00651
       H   -11.17039  -16.67014  -18.78148
       O   -12.11371  -16.54751  -18.61507
      H1   -12.18518  -16.60767  -17.62606
       H   -16.93584  -15.16858  -13.45101
       O   -17.88664  -15.41579  -13.62887
      H1   -17.83232  -16.16820  -14.27695
       H   -11.57799   -8.18999  -10.63333
       O   -11.03531   -7.56357  -11.13311
      H1   -11.37223   -7.75397  -12.06794
       H   -11.53195   -8.39595  -18.09499
       O   -10.70613   -8.19480  -18.56169
      H1    -9.96719   -8.50657  -17.97204
       H   -15.70838  -11.04865  -17.67153
       O   -15.27169  -10.84213  -16.81140
      H1   -15.97228  -10.27780  -16.35291
       H    -7.54526   -9.24212  -12.50263
       O    -8.32883   -8.68618  -12.38371
      H1    -8.14112   -7.83900  -12.78360
       H   -13.81540  -14.40414  -15.62377
       O   -14.69250  -14.91418  -15.58624
      H1   -15.40322  -14.25547  -15.83740
       H   -11.23054  -10.82060  -10.94895
       O   -11.50110  -11.10718  -10.02901
      H1   -12.21971  -11.73982  -10.03754
       H   -12.90169   -7.54919  -14.15831
       O   -12.14759   -7.15992  -13.75278
      H1   -11.51675   -7.68434  -14.21212
       H   -14.81370  -13.48901  -13.04916
       O   -15.10619  -14.42895  -12.96666
      H1   -14.97890  -14.72176  -13.90407
       H   -17.12421  -10.72106  -14.13215
       O   -17.52278  -11.58920  -13.86378
      H1   -17.26888  -11.77757  -12.96916
       H   -12.66534  -18.11975  -10.21637
       O   -13.44490  -17.56526  -10.32174
      H1   -13.26326  -17.23750  -11.22730
       H    -8.81793  -15.17852  -10.04400
       O    -8.95559  -14.64269   -9.23862
      H1    -9.41535  -15.25862   -8.68979
       H   -17.71964   -8.83054  -15.30670
       O   -16.86718   -9.23264  -15.14043
      H1   -16.36089   -8.43498  -15.22217
       H   -13.23441  -11.50856   -6.53304
       O   -13.43212  -10.62796   -6.79883
      H1   -14.14773  -10.57316   -7.45694
       H   -15.41816  -11.30814   -9.09138
       O   -15.77639  -10.53675   -8.56250
      H1   -16.53285  -10.80170   -8.07312
       H   -14.07290  -17.19655  -13.47727
       O   -13.61879  -16.68415  -12.78597
      H1   -14.06803  -15.83586  -12.79770
       H   -14.47548  -13.88679   -9.32477
       O   -15.26206  -13.35180   -9.45203
      H1   -15.53456  -13.47651  -10.32967
       H    -7.63411  -11.73678  -17.61572
       O    -8.37161  -11.47140  -17.06964
      H1    -8.33314  -10.48302  -17.21287
       H   -12.24829  -14.50674   -9.47545
       O   -12.92144  -14.89418   -8.87870
      H1   -12.85637  -14.49115   -8.00551
       H   -10.75591   -9.32766  -14.86310
       O   -10.11171   -8.61265  -15.08645
      H1    -9.52443   -8.64694  -14.30446

