132
frame 4 | Written by MDAnalysis XYZWriter (release 2.4.3)
       H   -11.01866    9.62930  -12.73203
       O   -10.76480    8.80367  -13.21251
      H1   -11.49347    8.17544  -13.33508
       H    -6.70195    6.58784   -8.41444
       O    -7.03016    6.88203   -7.55761
      H1    -8.00519    6.93778   -7.66550
       H   -13.68319    1.19450   -7.24831
       O   -12.95771    1.01958   -6.62752
      H1   -12.15934    1.05727   -7.21816
       H   -10.24407   -1.12161  -11.09867
       O   -10.46435   -0.58923  -11.87234
      H1   -11.11645   -1.10197  -12.34832
       H    -9.44038    5.25232   -7.83487
       O    -9.62846    5.58163   -8.72625
      H1    -9.49516    4.83421   -9.33395
       H   -17.75839    1.45671  -14.82314
       O   -17.82274    1.79432  -13.89568
      H1   -17.20453    2.52956  -14.00016
       H    -9.60977    4.21933   -5.59765
       O    -9.28992    5.06452   -5.94769
      H1    -9.66617    5.75188   -5.33778
       H   -16.12925    0.55672  -13.66776
       O   -15.33685    0.17462  -13.27854
      H1   -14.73518    0.10737  -14.03569
       H   -17.79988    4.10247  -10.77600
       O   -18.02929    3.54803  -11.50897
      H1   -18.27332    2.73352  -11.10492
       H    -9.07726   -1.53348   -8.63002
       O    -9.30042   -1.65204   -9.57815
      H1    -8.39844   -1.60135  -10.03964
       H   -14.18198    1.74186  -15.20497
       O   -14.75351    2.15719  -15.86810
      H1   -15.12982    2.88822  -15.33425
       H   -12.84119    6.99445  -15.89838
       O   -13.12527    7.35894  -16.74792
      H1   -13.30560    8.32827  -16.53597
       H   -15.53363    1.29697  -11.73294
       O   -15.74084    2.11888  -11.19781
      H1   -16.53751    2.48641  -11.63181
       H   -13.71436    9.65432   -9.74331
       O   -12.85305    9.36751  -10.00119
      H1   -12.33899   10.20992  -10.03499
       H   -13.44250   -0.06146  -10.32780
       O   -12.57922   -0.25196   -9.99133
      H1   -11.99006   -0.06467  -10.82261
       H   -10.88919    5.90116  -11.73987
       O   -10.16028    6.21236  -12.28311
      H1    -9.59055    6.62071  -11.63808
       H   -13.57266   -2.20761  -12.70218
       O   -12.77010   -1.82560  -13.08212
      H1   -13.06598   -1.40348  -13.91590
       H   -11.60698    4.46251  -10.42710
       O   -11.99419    3.80788  -10.99220
      H1   -12.77543    4.19493  -11.36147
       H    -7.22129    0.80508  -12.84439
       O    -7.62642   -0.05554  -12.96554
      H1    -8.56968    0.03849  -12.81747
       H    -7.72510    2.61215   -9.15657
       O    -6.94125    2.36059   -8.63851
      H1    -6.92484    3.06637   -8.00928
       H   -16.31059    7.36660  -12.50003
       O   -15.54544    7.21185  -11.92452
      H1   -14.99382    7.98654  -12.02466
       H   -14.59132    6.94528   -8.15450
       O   -15.43303    7.34353   -8.35145
      H1   -15.79962    6.66203   -8.92318
       H   -12.92432    5.74578   -6.51244
       O   -13.24099    5.40922   -7.36956
      H1   -12.57768    5.62725   -8.05103
       H   -10.85032    3.02042  -12.20591
       O   -10.08147    2.54690  -12.62033
      H1    -9.55088    3.17958  -13.13501
       H   -15.79253    3.46839   -7.14379
       O   -15.05163    3.11719   -7.60761
      H1   -14.35001    3.70426   -7.31371
       H    -9.45484    2.73036  -11.10749
       O    -9.25018    2.86656  -10.14078
      H1    -9.83365    2.16358   -9.71402
       H   -12.07113    7.47417  -10.22299
       O   -11.77306    6.58791  -10.02225
      H1   -11.00063    6.68970   -9.48113
       H   -10.06365    3.22386  -17.80568
       O    -9.64944    2.54792  -17.24511
      H1   -10.29993    2.54053  -16.51419
       H   -16.12158    1.16424   -9.56242
       O   -15.87119    0.76020   -8.74883
      H1   -15.74942    1.48579   -8.13350
       H   -16.28196    6.34496  -10.84560
       O   -16.69674    5.68870  -10.16729
      H1   -17.63485    5.99219  -10.13618
       H   -14.76733    5.52044  -11.80179
       O   -14.47305    4.77775  -12.39779
      H1   -14.81619    3.96585  -11.95475
       H   -10.34412    0.50580  -15.41708
       O   -10.84749    1.23423  -15.02749
      H1   -10.62827    1.25901  -14.08607
       H    -8.65004    8.26328  -14.28628
       O    -8.66749    7.76664  -15.15364
      H1    -9.56894    7.29320  -15.13136
       H    -5.88942    5.73070  -10.85117
       O    -6.24991    5.43714  -10.00059
      H1    -5.88563    4.62641   -9.68722
       H   -11.37048    8.16481   -7.41004
       O   -10.40270    8.26944   -7.23133
      H1   -10.35865    8.10715   -6.29938
       H   -11.80859    2.51213   -5.46024
       O   -11.21263    2.63504   -4.70239
      H1   -11.80693    3.03540   -3.98979
       H    -7.34577    6.73435  -10.79580
       O    -7.76866    7.51600  -11.07565
      H1    -8.05107    7.89560  -10.16547
       H   -13.24324   -0.35487  -16.28420
       O   -13.10879   -0.21424  -15.34524
      H1   -12.31183    0.32449  -15.30735
       H   -12.79466    5.94498  -14.03146
       O   -12.05877    6.36571  -14.47898
      H1   -11.28060    6.09808  -14.00457
       H   -16.25037    4.48505  -15.04272
       O   -16.02195    3.86407  -14.33239
      H1   -15.46014    4.35889  -13.71264
       H   -13.55317    9.41102  -11.89895
       O   -13.67525    8.79316  -12.68188
      H1   -14.29103    9.32176  -13.23401
       H    -7.73085    2.69879  -11.14284
       O    -7.02098    2.58557  -11.76721
      H1    -7.24081    3.09898  -12.57318
       H   -11.56992    0.73356   -9.04485
       O   -10.77012    1.17766   -8.64023
      H1   -10.18907    0.50233   -8.27058
       H    -7.40326    3.65214  -14.78469
       O    -7.93213    3.84681  -13.99340
      H1    -7.80055    4.79134  -13.91771

