132
frame 0 | Written by MDAnalysis XYZWriter (release 2.4.3)
       H    -7.64857   -9.06462    9.17356
       O    -8.63460   -8.96743    9.26155
      H1    -8.89016   -9.86621    9.36881
       H    -6.91983   -5.05466   16.97674
       O    -7.33896   -5.02270   17.86270
      H1    -6.61265   -5.19539   18.47009
       H    -0.31867  -12.12682   12.62242
       O    -0.15941  -12.40563   11.74005
      H1    -0.92630  -12.08253   11.13849
       H    -0.00035   -6.95881   14.16241
       O     0.49545   -6.20510   14.45421
      H1     1.38225   -6.50494   14.13010
       H    -8.16917  -11.80755   10.59523
       O    -7.46616  -11.95151   11.27793
      H1    -7.59440  -11.41892   12.10428
       H    -6.80873   -6.78044   11.35909
       O    -6.35876   -6.06508   10.92118
      H1    -6.01321   -6.51679   10.13806
       H    -7.57701  -13.40168   12.33256
       O    -7.80627  -14.27145   12.83776
      H1    -8.28282  -14.84750   12.20771
       H    -6.86508   -3.83986   12.98287
       O    -5.99887   -4.30424   13.02502
      H1    -5.97812   -4.92519   12.23978
       H    -2.91489  -12.05982   18.52964
       O    -3.66344  -11.57345   18.89809
      H1    -3.90347  -11.07892   18.09181
       H    -1.74497   -9.77862   10.15797
       O    -1.23008   -8.94157   10.37032
      H1    -0.33136   -9.24838   10.16116
       H    -5.24659  -10.19080    7.17995
       O    -4.98513  -10.47687    6.28647
      H1    -5.47140  -11.34726    6.26180
       H    -3.91283   -6.72848    7.48408
       O    -3.75443   -7.35148    8.15057
      H1    -3.28274   -8.05764    7.76543
       H    -3.65307   -9.91368   11.31394
       O    -3.31295  -10.80030   11.08978
      H1    -4.00377  -11.36773   10.65798
       H    -8.60179   -7.60640   16.04845
       O    -7.75633   -8.13815   16.10641
      H1    -7.93389   -8.83528   15.49365
       H    -3.09450  -11.79048   12.31479
       O    -3.03539  -12.44174   13.09407
      H1    -3.57157  -13.22682   12.87570
       H    -0.84714   -2.95568   13.07179
       O    -0.94879   -2.18532   13.70847
      H1    -1.77066   -2.38137   14.14303
       H    -3.76615  -13.19975   15.81342
       O    -3.62166  -12.21804   15.77834
      H1    -3.50320  -11.97543   14.84194
       H    -4.12282   -9.00895   16.22878
       O    -3.86839   -9.17169   17.14931
      H1    -3.13397   -8.57193   17.24306
       H    -3.79828   -8.31339   12.43515
       O    -3.89011   -8.06078   11.49692
      H1    -3.08596   -7.76174   11.21724
       H    -0.93804  -10.72617   17.11617
       O    -1.05939  -11.65364   16.84890
      H1    -1.95255  -11.80792   16.44831
       H    -4.37453  -14.98520   11.49551
       O    -4.66976  -14.38141   12.19517
      H1    -5.53636  -14.61437   12.42331
       H    -2.47009   -6.02018    9.57934
       O    -1.99946   -5.35612   10.14784
      H1    -2.67024   -4.70663   10.35062
       H    -1.03040   -8.85662   13.00204
       O    -1.06520   -9.01416   13.94470
      H1    -0.47137   -9.78754   14.04487
       H    -0.59478  -11.85915    8.03858
       O    -1.40281  -12.00882    8.59362
      H1    -1.95200  -12.63822    8.14829
       H    -0.28824  -11.66620   15.28001
       O     0.39119  -11.45512   14.57874
      H1     0.92586  -12.21425   14.37971
       H    -7.67722  -10.14324   14.00589
       O    -8.14595  -10.28576   13.18738
      H1    -8.10377   -9.36988   12.82260
       H    -3.29071  -10.23072    6.66393
       O    -2.39556   -9.97522    6.94915
      H1    -2.25943  -10.55905    7.71132
       H    -3.71703   -1.36382   13.08549
       O    -4.34582   -1.81214   13.70212
      H1    -4.51794   -2.67401   13.27211
       H    -8.22261   -8.26306   10.77581
       O    -8.21730   -7.84924   11.64579
      H1    -8.65001   -6.97597   11.56551
       H    -1.80588  -13.73616   14.23636
       O    -1.56427  -14.65970   14.07684
      H1    -1.61161  -14.71341   13.15481
       H    -5.36575  -10.48835   15.03925
       O    -6.26332  -10.59916   15.33638
      H1    -6.20663  -10.86674   16.25731
       H     1.75501  -10.12714   10.04382
       O     1.19012   -9.56133    9.49334
      H1     1.51333   -8.63879    9.62341
       H    -4.86558   -8.63499    8.73018
       O    -5.62724   -9.23744    8.71257
      H1    -5.29484  -10.09190    9.05681
       H    -3.23481   -2.47862   11.10711
       O    -3.79829   -3.19444   10.84999
      H1    -4.06932   -3.07632    9.92307
       H    -4.42647   -7.95744   13.87378
       O    -4.11864   -8.83820   14.04526
      H1    -3.15648   -8.82503   14.29516
       H     0.67946   -4.45229   11.57318
       O     0.65266   -4.15393   12.48790
      H1     0.61562   -4.93870   13.09777
       H    -1.52980   -6.77341   16.47845
       O    -1.61993   -7.74188   16.60905
      H1    -0.70252   -8.03061   16.50486
       H    -2.98160   -3.68997   16.19904
       O    -2.26814   -3.06732   16.02950
      H1    -2.30932   -2.33727   16.71900
       H    -1.16402   -4.18930   16.79865
       O    -0.48584   -4.78333   17.17314
      H1    -0.23928   -5.23514   16.34154
       H     0.20356   -5.63725   10.23873
       O     0.92867   -5.09552    9.98492
      H1     0.68729   -4.53524    9.28605
       H    -6.74204   -5.41114   14.46762
       O    -6.70364   -5.60243   15.35927
      H1    -6.84753   -6.54507   15.42141
       H    -5.03430   -8.01686   18.24520
       O    -5.22190   -7.18073   18.75720
      H1    -4.36191   -6.90891   19.08290
       H    -5.94672  -11.93084   10.31706
       O    -5.31706  -11.96902    9.49145
      H1    -5.36520  -12.80473    9.02628
       H    -4.79632   -5.50712   15.90826
       O    -3.87336   -5.50809   16.22130
      H1    -3.88574   -5.51827   17.17522

