132
frame 4 | Written by MDAnalysis XYZWriter (release 2.4.3)
       H     2.62114   17.74721  -10.07413
       O     3.40490   17.19014  -10.27142
      H1     3.58950   16.66638   -9.44271
       H     3.64909   17.62748  -14.81546
       O     4.33826   17.69455  -15.44921
      H1     4.01571   17.94661  -16.32361
       H    -3.82754   14.15542  -11.58980
       O    -4.31922   13.58568  -10.98438
      H1    -4.70768   12.90886  -11.52831
       H     1.74062   11.53366   -5.54095
       O     2.61896   11.26470   -5.93737
      H1     3.05583   12.01055   -6.37290
       H     0.55232   16.62755  -12.76479
       O     0.64461   16.08825  -11.94275
      H1     0.41394   16.72740  -11.25689
       H     2.02410   12.19977  -13.27684
       O     1.80790   12.08789  -12.32627
      H1     0.81868   12.16554  -12.35588
       H     3.10527   15.38387  -14.77067
       O     2.47295   15.47137  -15.52792
      H1     3.03309   15.04339  -16.21566
       H     5.29422   15.85367  -16.04853
       O     5.66096   15.08899  -16.53891
      H1     5.02014   14.94872  -17.27378
       H    -0.85643   13.73278  -13.26923
       O    -0.97998   13.92839  -12.37459
      H1    -0.43374   14.65755  -12.12646
       H     0.90830    8.88881   -9.04418
       O     0.21892    8.37951   -9.57921
      H1     0.56180    7.46568   -9.62871
       H    -1.84160    9.75971  -14.94545
       O    -1.70148   10.56437  -14.50049
      H1    -2.62371   10.83459  -14.31122
       H     3.40273    9.23177  -11.65268
       O     4.31990    9.12971  -11.51931
      H1     4.68057   10.07469  -11.51803
       H     4.62171    9.21963  -16.33504
       O     4.73153    8.52355  -16.99797
      H1     4.78776    9.06287  -17.80341
       H     1.19381   14.67514   -8.01848
       O     0.95892   14.39302   -8.91508
      H1     1.74861   14.55270   -9.48240
       H     5.21393   17.08733  -12.71780
       O     4.28034   17.23721  -12.73163
      H1     3.96721   17.15381  -11.79894
       H    -0.42448   12.22201   -4.97319
       O    -0.06372   12.43750   -5.85630
      H1    -0.76427   12.32287   -6.54562
       H     1.45570   16.96427  -14.64647
       O     0.74035   17.62086  -14.51991
      H1     1.21978   18.37358  -14.90494
       H     2.56138    7.99562  -17.42405
       O     1.65510    7.76591  -17.77756
      H1     1.04250    7.75085  -17.07217
       H     3.37268   16.20619   -7.24044
       O     4.15151   15.87364   -7.70446
      H1     4.21941   14.87884   -7.47867
       H    -1.05272   11.32259  -10.43756
       O    -1.12444   11.06018  -11.37341
      H1    -1.50261   11.95484  -11.59196
       H     2.66378    5.64394  -13.44428
       O     1.77192    5.76879  -13.10268
      H1     1.18504    5.12295  -13.55064
       H    -1.60363   13.45345  -18.48121
       O    -0.67921   13.64545  -18.21553
      H1    -0.84050   13.89019  -17.26455
       H     0.33667   11.26380   -8.38324
       O    -0.31923   11.89620   -8.73984
      H1     0.15545   12.68751   -8.95422
       H     5.95863   14.85938  -10.57019
       O     5.46108   14.12880  -11.03735
      H1     4.53061   14.28146  -10.94102
       H    -1.42049    7.58541  -16.04173
       O    -0.90974    8.32567  -15.75178
      H1    -0.50094    8.11329  -14.89622
       H     0.63773    9.82790  -14.82999
       O     1.49823    9.48143  -14.71632
      H1     1.48710    9.43044  -13.72984
       H    -1.72601    8.94623   -9.55482
       O    -2.53367    9.20956   -9.98447
      H1    -2.25115    9.87858  -10.64082
       H     2.20775   12.43342  -16.35324
       O     2.35275   12.51142  -15.41656
      H1     3.04647   11.85623  -15.32882
       H     4.95007    9.44468   -7.94318
       O     5.11383   10.32900   -7.55613
      H1     4.45087   10.61062   -6.94662
       H     6.54926   11.41370  -12.55110
       O     5.61495   11.61582  -12.46547
      H1     5.60565   12.57344  -12.22444
       H     2.26817   13.74794  -11.43604
       O     2.75694   14.44392  -10.99208
      H1     2.40366   15.26244  -11.31204
       H     4.61014    8.46908   -9.89184
       O     4.68905    8.02661   -9.02145
      H1     3.91469    7.44832   -8.92366
       H     4.53944   13.24687   -6.16184
       O     4.23426   13.17548   -7.06029
      H1     5.01479   13.07331   -7.63628
       H     0.57231   12.68419  -15.35973
       O    -0.30307   12.98101  -15.11434
      H1    -0.86570   12.22099  -15.39179
       H     6.20275   10.90773  -15.49870
       O     5.25779   10.76223  -15.26588
      H1     5.14366   10.78292  -14.35543
       H     5.66350   12.90669   -9.85140
       O     6.10955   12.60635   -9.01575
      H1     5.77968   11.76681   -8.76692
       H     6.94107    6.93838  -11.57907
       O     6.60435    7.61239  -12.17056
      H1     5.64608    7.61873  -12.09599
       H    -2.30755   15.40557  -12.01691
       O    -3.06777   16.00627  -11.96572
      H1    -3.25257   16.19170  -11.04220
       H    -1.06417    8.70812  -12.61960
       O    -1.11952    7.77818  -12.90320
      H1    -0.23505    7.52502  -12.80178
       H     0.98638   12.95314  -17.99093
       O     1.82529   12.51746  -18.15523
      H1     1.59685   11.67029  -18.50688
       H     1.49136   10.12482  -11.92124
       O     1.54311    9.18754  -11.79765
      H1     0.87391    9.00501  -11.03924
       H     0.26580    9.70267   -6.94724
       O     1.03664    9.80944   -7.50646
      H1     1.66869   10.29435   -6.93007
       H    -3.71707   13.05001   -9.17446
       O    -3.39062   12.70718   -8.32003
      H1    -3.15383   13.50391   -7.80334
       H    -0.26915   15.61524   -8.74698
       O    -0.81765   16.34945   -8.34973
      H1    -0.43755   17.16244   -8.72032

