132
frame 1 | Written by MDAnalysis XYZWriter (release 2.4.3)
       H   -15.05140   18.91309    1.26003
       O   -15.02019   19.20359    0.35253
      H1   -14.38555   19.91523    0.18132
       H   -11.15111   17.69854   -1.03001
       O   -11.57412   17.57371   -0.18295
      H1   -10.94195   17.12048    0.41781
       H   -10.33567   15.81366   -9.68087
       O   -10.98847   15.44371  -10.31161
      H1   -10.97871   16.00755  -11.06756
       H   -13.30026   16.58736   -0.00549
       O   -14.08335   16.04379   -0.06639
      H1   -14.50049   16.56712   -0.76010
       H    -7.29458   11.10823   -4.89474
       O    -7.91003   11.78480   -5.22313
      H1    -8.34329   11.54862   -6.09275
       H    -9.24756   11.22732   -0.46187
       O   -10.14499   11.27078   -0.77868
      H1   -10.18071   10.69588   -1.55892
       H   -14.26043   12.08867   -5.77690
       O   -14.25850   12.68811   -6.52774
      H1   -13.34000   12.77931   -6.80400
       H   -11.76218   18.95861    0.97678
       O   -11.93718   19.74336    1.47590
      H1   -11.65117   19.68874    2.38655
       H   -13.57519   17.41266   -5.48566
       O   -13.41240   17.70415   -4.55941
      H1   -13.02632   16.94968   -4.12541
       H   -15.37687   18.03738   -1.13319
       O   -15.94960   17.30564   -1.33286
      H1   -16.02143   17.21839   -2.28749
       H   -15.51848   15.05099    0.50970
       O   -16.43324   14.82015    0.48013
      H1   -16.87172   15.47744   -0.13950
       H    -8.27716   13.50050    2.30875
       O    -7.42588   13.38732    1.88194
      H1    -7.69088   13.36852    1.00682
       H   -13.52522   12.17965    0.05161
       O   -13.64301   11.65494    0.84289
      H1   -13.90163   10.76961    0.56900
       H   -15.18662   14.64359   -3.28211
       O   -14.51227   14.00105   -3.47480
      H1   -14.17639   13.79855   -2.60484
       H   -10.89673   16.51309   -6.46030
       O   -11.59002   15.92608   -6.80585
      H1   -12.27440   16.47707   -7.16365
       H   -15.24699   12.24767   -3.71723
       O   -15.05901   11.28861   -3.80082
      H1   -15.83102   10.91402   -4.20056
       H    -9.33603   17.70789   -5.68985
       O    -9.54064   16.89457   -5.28647
      H1    -8.79619   16.29205   -5.42003
       H    -7.00235   19.39511   -9.09607
       O    -7.71421   19.59631   -9.64759
      H1    -8.47134   19.06678   -9.45590
       H    -8.41327   17.59489   -2.15759
       O    -7.87924   16.78955   -2.05454
      H1    -8.38544   16.07166   -2.41029
       H    -4.41194   15.81213   -5.41387
       O    -5.07633   16.50663   -5.54185
      H1    -5.17667   16.85995   -4.59494
       H   -12.40317   16.07016  -10.23368
       O   -13.19374   16.65842  -10.11748
      H1   -13.88973   16.40072  -10.74637
       H    -8.53615   15.43823   -7.93483
       O    -8.47517   15.94501   -8.77186
      H1    -8.18075   15.24717   -9.38539
       H   -10.42174   12.98815   -0.95854
       O   -10.45765   13.94870   -1.07494
      H1   -10.02568   14.12312   -1.93689
       H   -11.89397   15.36003   -4.85280
       O   -12.04260   15.41628   -3.88793
      H1   -12.82106   14.87766   -3.85556
       H   -10.61037   17.42206   -3.45056
       O   -10.55585   17.87937   -2.62813
      H1    -9.99967   18.62810   -2.91328
       H    -7.31877   14.43599   -5.60032
       O    -7.54781   15.25591   -6.05213
      H1    -6.81756   15.85658   -5.85533
       H   -10.12309   13.92641    3.44190
       O    -9.36277   14.57800    3.40209
      H1    -9.62979   15.05520    2.59621
       H   -16.11492   15.89835   -4.73672
       O   -16.45581   16.14357   -3.88532
      H1   -17.34443   16.40941   -4.01763
       H   -15.04078   15.90148   -7.12325
       O   -15.45939   15.12678   -6.65630
      H1   -14.82397   14.41419   -6.44621
       H   -10.35787   10.63343   -7.45045
       O    -9.70585   11.38722   -7.49858
      H1   -10.31786   12.13159   -7.59876
       H   -11.69249   12.90803   -8.62698
       O   -11.68960   13.19478   -7.70358
      H1   -11.49765   14.12292   -7.61548
       H    -5.27293   12.20162   -3.11114
       O    -5.67550   11.88919   -2.30712
      H1    -4.91609   11.86383   -1.70805
       H   -16.47267   18.32369   -4.61762
       O   -15.92992   19.06045   -4.20444
      H1   -15.03845   18.79095   -4.48123
       H    -6.57973   17.78917    1.78703
       O    -5.73903   17.96421    2.35060
      H1    -5.35792   18.71773    1.82949
       H    -4.66136   17.85298   -2.89042
       O    -5.53837   17.98122   -3.28163
      H1    -6.18123   17.34991   -2.89259
       H   -13.93622   18.28052   -7.51892
       O   -13.98303   17.32227   -7.37942
      H1   -13.81417   17.14356   -8.32085
       H    -6.89578   13.41337   -7.79806
       O    -6.04082   13.05474   -7.63115
      H1    -6.17564   12.09823   -7.93235
       H   -12.21612   13.89430   -1.06848
       O   -13.13433   13.59558   -1.15669
      H1   -13.56446   14.40357   -0.84815
       H   -17.50980   19.39956   -2.99233
       O   -18.43960   19.66365   -2.79661
      H1   -18.64299   19.15558   -1.98551
       H    -4.48971   19.63816   -5.54290
       O    -3.92133   19.09600   -6.03341
      H1    -4.22397   18.23931   -5.74234
       H    -7.78104   17.77227   -0.03936
       O    -7.97857   17.85827    0.90387
      H1    -8.48106   18.69914    0.97959
       H   -11.45697   11.08406   -5.37526
       O   -12.30553   10.63180   -5.45889
      H1   -12.25833    9.68415   -5.19656
       H    -9.90955   14.79545   -3.79249
       O    -9.02117   14.70340   -3.36548
      H1    -8.69444   13.83444   -3.65086
       H   -10.01020   15.40100    0.24857
       O    -9.92562   15.95055    1.00703
      H1    -9.18349   16.51206    0.78085

