132
frame 8 | Written by MDAnalysis XYZWriter (release 2.4.3)
       H   -16.58040    6.86535   10.16984
       O   -16.59763    7.32479   11.06278
      H1   -17.49911    7.76049   11.24841
       H   -16.96525    4.66876   18.09581
       O   -15.98488    4.72797   17.88418
      H1   -15.84956    5.69081   17.90643
       H   -10.81718    6.02977   13.98159
       O   -11.12446    5.72311   14.92402
      H1   -11.81286    6.33228   15.21377
       H   -12.04258    1.83727   12.56111
       O   -12.07970    0.90467   12.85576
      H1   -11.58834    0.92294   13.68355
       H   -11.86390    6.29589    8.85633
       O   -12.12189    5.87860    8.02858
      H1   -11.33622    6.03299    7.47947
       H   -12.48001    1.62872   17.94112
       O   -11.67384    1.93565   17.51056
      H1   -11.00243    1.95235   18.16984
       H   -13.15584   -2.12731   15.36579
       O   -12.87542   -1.43852   14.68288
      H1   -12.34238   -1.98819   14.10287
       H   -14.35639    2.40856   10.34842
       O   -13.57532    2.39898    9.85392
      H1   -13.34560    1.49563    9.72479
       H   -13.63869    3.84255   14.84212
       O   -13.23804    4.29106   14.10234
      H1   -12.36316    4.68610   14.43843
       H   -14.85472    8.42392   10.58192
       O   -14.66543    9.28623   10.25650
      H1   -15.33893    9.81207   10.76857
       H   -18.66361    6.05046   15.38281
       O   -17.79029    5.66659   15.60954
      H1   -17.41861    5.00752   14.99849
       H   -16.01053    4.14989   12.12300
       O   -15.95426    4.50057   13.02660
      H1   -15.63882    5.37931   13.04736
       H   -19.20672    2.37875   13.11759
       O   -18.63214    2.50926   12.38293
      H1   -17.70358    2.57912   12.50941
       H   -16.31306    6.81829   15.96063
       O   -15.39938    7.18430   16.02385
      H1   -14.94572    7.03633   15.18552
       H   -15.73051    1.82196   11.77829
       O   -15.95788    2.46930   11.13672
      H1   -16.37752    1.99052   10.32263
       H   -15.99670    9.79900   17.85282
       O   -16.53420    9.15217   17.46538
      H1   -16.00186    8.63881   16.83575
       H    -8.79355    3.25582   10.04038
       O    -9.15389    2.52211   10.60297
      H1    -9.98445    2.93753   10.93648
       H   -13.60678    8.67404   14.71009
       O   -12.83338    8.42491   15.24327
      H1   -13.11483    8.46053   16.16870
       H    -7.21267    1.45382   14.89462
       O    -6.83925    2.23575   15.25223
      H1    -7.60158    2.96009   15.19129
       H   -14.12944   10.86803   14.14896
       O   -14.73450   10.17513   14.04249
      H1   -15.16780   10.29235   13.18236
       H    -9.13252    5.45304   13.24613
       O    -9.71395    5.86714   12.56983
      H1   -10.27467    5.12590   12.21788
       H   -12.06892   -0.05409   11.42453
       O   -12.35649   -0.49194   10.57241
      H1   -13.26868   -0.63055   10.63412
       H   -15.17421   -0.11116   12.80916
       O   -14.83132    0.74010   13.09012
      H1   -13.87645    0.73307   12.91435
       H   -14.09347    2.09486   19.38582
       O   -14.06928    1.21416   18.96691
      H1   -13.78058    0.66976   19.73456
       H   -13.98987    6.76945   17.03173
       O   -13.43069    7.12187   17.76583
      H1   -12.76929    6.42616   17.86684
       H   -15.05867    7.29409   12.55748
       O   -14.56485    6.85477   13.25817
      H1   -13.80110    6.39107   12.83974
       H    -9.19222    7.66153   17.06236
       O    -9.00879    6.99646   16.35710
      H1    -9.89480    6.98938   15.92231
       H   -10.52365    9.54046   17.00748
       O   -10.54801    8.94733   17.79327
      H1    -9.98478    9.40325   18.42297
       H   -12.43822    3.43698   11.10150
       O   -11.65042    3.60910   11.63739
      H1   -12.02792    3.84999   12.47019
       H   -14.94529    4.13261   19.24701
       O   -14.08430    3.76337   19.68182
      H1   -13.42238    4.27523   19.16802
       H   -12.96298   -0.83735   16.91087
       O   -12.64878   -1.56367   17.53997
      H1   -11.83792   -1.94153   17.21796
       H    -8.94386    5.06205   15.27005
       O    -8.20476    4.82938   14.69851
      H1    -7.59630    5.55795   14.66621
       H    -8.68210    6.45906   11.10126
       O    -8.20039    6.95616   10.44419
      H1    -7.30674    7.05291   10.70395
       H   -12.18409    8.71997   10.67283
       O   -11.71931    8.05375   10.09781
      H1   -10.86336    7.93736   10.58545
       H    -8.17602    0.15494   13.31078
       O    -8.20720   -0.13804   14.18973
      H1    -9.11545   -0.14288   14.53369
       H   -10.51592   -0.09570    9.75857
       O    -9.57597    0.06062    9.52642
      H1    -9.43817    1.01583    9.83203
       H   -15.79168    4.03322   16.29251
       O   -15.64586    3.31153   15.63176
      H1   -15.60623    3.64213   14.64984
       H   -11.89813    3.87254   17.42434
       O   -12.08642    4.69078   18.00211
      H1   -11.33882    4.80448   18.62919
       H   -15.92816    1.84735   16.56519
       O   -16.10656    1.19320   17.27478
      H1   -15.24915    1.25794   17.82274
       H   -15.47102   -0.16015   16.04112
       O   -15.61763   -0.83221   15.39730
      H1   -15.02937   -0.55900   14.67140
       H    -6.57091    4.84595   17.78399
       O    -7.32960    5.38031   17.99118
      H1    -7.64199    5.71990   17.14939
       H   -12.78010    4.39424    7.54424
       O   -13.14373    3.60937    7.09480
      H1   -13.08880    2.92167    7.81090
       H   -18.69189    5.49067   18.32035
       O   -18.60341    4.57084   17.96455
      H1   -18.38894    4.94070   17.05534
       H   -10.91115    0.78114   15.95008
       O   -10.70951    0.33244   15.13264
      H1   -11.45619   -0.29337   15.10954

