132
frame 3 | Written by MDAnalysis XYZWriter (release 2.4.3)
       H     8.65581   -1.36667    0.02576
       O     8.24652   -2.20985    0.08276
      H1     9.01889   -2.80677    0.12543
       H     5.61548   -1.57472    3.64967
       O     5.24170   -1.04850    2.99288
      H1     5.82570   -0.35457    2.63345
       H    12.46055   -6.43833   10.11577
       O    11.48859   -6.60716   10.09780
      H1    11.02344   -5.75877   10.15672
       H     3.76033   -8.47589    2.98115
       O     4.52160   -8.05133    2.52743
      H1     4.03788   -7.36574    2.07329
       H     6.27561  -10.18726    8.66036
       O     5.95835  -10.44106    9.54642
      H1     6.73137  -10.26060   10.14546
       H     8.82281   -9.94754    6.41819
       O     8.38503   -9.52070    5.72478
      H1     8.54578  -10.08795    4.90526
       H     7.87438   -2.03394   11.16816
       O     7.58057   -1.51836   10.42295
      H1     7.09903   -2.24462    9.98473
       H     5.29563   -6.48118    3.73493
       O     5.67990   -6.10495    4.48829
      H1     5.25410   -5.20424    4.53619
       H     5.46598   -2.20731    1.72334
       O     5.80645   -2.79968    0.99185
      H1     6.63101   -2.39096    0.72391
       H     7.37550   -6.38660    5.16606
       O     8.02235   -6.81955    5.73717
      H1     7.87966   -7.73781    5.64096
       H     1.46063   -5.77452    3.57245
       O     1.83543   -6.63927    3.86154
      H1     1.43733   -6.69469    4.72947
       H     5.46199   -3.68675    8.60457
       O     6.20537   -3.87283    9.21697
      H1     5.92735   -4.49902    9.92002
       H     3.95837   -2.86168    7.36353
       O     4.46514   -3.71916    7.36858
      H1     3.79635   -4.38100    7.60015
       H     7.18850   -4.74735    3.18581
       O     7.67538   -4.46564    2.43342
      H1     7.20394   -3.77385    1.98742
       H    10.74272   -4.57965    6.93874
       O    11.55909   -4.93947    7.24092
      H1    11.93377   -5.57168    6.59972
       H     5.66621   -9.47006    2.47266
       O     5.80619  -10.41483    2.38948
      H1     6.72398  -10.58542    2.16584
       H     4.56849   -3.49137    5.63106
       O     4.34904   -3.19346    4.76184
      H1     3.45856   -3.45304    4.55812
       H    12.95608  -11.08202    3.75386
       O    12.84559  -10.09152    3.91159
      H1    12.65998  -10.03453    4.86025
       H     8.02061   -9.06828    1.33505
       O     8.32486  -10.00665    1.23216
      H1     8.15533  -10.26058    0.30055
       H    10.62222   -4.88533    0.48570
       O     9.82880   -4.85750   -0.07890
      H1    10.21252   -4.91906   -1.01175
       H    10.10502   -8.09142    4.42978
       O    10.66709   -7.45086    3.99494
      H1    10.85411   -7.76488    3.08169
       H     7.35794   -4.97250    8.32047
       O     8.21025   -5.29027    8.03548
      H1     7.96770   -5.85746    7.34589
       H     5.15632   -9.15515    6.36731
       O     5.75401   -9.81710    6.71440
      H1     6.67437   -9.54737    6.49855
       H     8.51585   -6.51847   12.91026
       O     7.97496   -6.21587   12.10048
      H1     8.58301   -6.34639   11.35242
       H     9.92344  -10.17131    2.45808
       O    10.25029  -10.41109    3.33560
      H1    11.22183  -10.18622    3.36322
       H     8.23164   -7.26193   -1.00570
       O     8.60841   -7.03027   -1.87509
      H1     8.86640   -7.94032   -2.25808
       H     7.04267   -0.16631    6.28480
       O     6.96710    0.50724    6.97828
      H1     7.73657    0.43717    7.55736
       H    12.69420   -5.52437    1.67271
       O    12.09129   -4.78151    1.93729
      H1    11.70110   -5.00855    2.78673
       H     5.16801  -11.61505    5.40219
       O     4.59194  -11.87026    4.67193
      H1     5.13845  -11.82552    3.83295
       H     9.31141   -4.58227    3.26194
       O    10.08432   -4.68782    3.83357
      H1    10.18935   -5.70993    3.95898
       H    12.38802   -7.44279    6.46293
       O    13.21903   -7.38034    5.91544
      H1    12.86470   -7.00648    5.08958
       H     4.50959   -7.05655    5.47907
       O     3.95631   -7.75632    5.90554
      H1     3.30075   -7.86847    5.23617
       H    11.76376   -0.45858    7.17037
       O    10.91728   -0.79589    6.87708
      H1    11.13186   -1.70145    6.67638
       H     8.21188   -2.37460    5.60664
       O     7.69539   -1.59859    5.26759
      H1     8.12495   -1.24704    4.50408
       H     3.13081  -10.93712    7.20989
       O     2.77533  -10.28661    6.60567
      H1     3.25081   -9.47084    6.73865
       H     1.56666   -9.71481    3.94878
       O     2.49675   -9.51500    3.62664
      H1     3.10631  -10.00161    4.17323
       H     3.93378   -6.05558   -0.27567
       O     3.44487   -5.95726    0.54454
      H1     3.22448   -5.03382    0.55660
       H    12.02435   -7.66893    1.27755
       O    11.15421   -8.14175    1.39567
      H1    11.23046   -8.88786    0.77035
       H    10.16329   -7.44302    7.40767
       O    10.98044   -7.73727    7.71827
      H1    11.23458   -7.11393    8.44070
       H     2.21293   -5.82343    7.33362
       O     2.58429   -5.52007    8.17862
      H1     2.73920   -6.21365    8.82344
       H     9.19709   -6.80412    0.81177
       O     8.33510   -6.91146    1.26135
      H1     8.05210   -5.99116    1.32625
       H     8.86234   -4.00012    6.46103
       O     9.37493   -3.34105    6.01548
      H1     9.75973   -3.78820    5.23309
       H     9.34308   -3.98979    9.25594
       O     9.90154   -4.09437   10.04588
      H1     9.49169   -3.55927   10.81667
       H    10.02411   -9.11231    7.88908
       O     9.53989   -9.94519    8.02013
      H1    10.16969  -10.70051    8.10104

