132
frame 2 | Written by MDAnalysis XYZWriter (release 2.4.3)
       H    -1.18637  -10.11973    0.59020
       O    -1.37850  -10.87807    0.00528
      H1    -0.86580  -11.54528    0.46294
       H     0.68629  -11.84506   -6.62348
       O     0.11390  -12.39833   -7.15642
      H1    -0.42586  -12.96335   -6.55831
       H     0.22033   -7.24311   -1.06907
       O     0.65446   -7.05173   -1.89896
      H1     0.41915   -7.89741   -2.39981
       H    -1.25482  -18.07521   -7.15319
       O    -0.79074  -18.90686   -7.31441
      H1    -1.31073  -19.29806   -8.04000
       H     3.20235  -11.16543   -5.63843
       O     2.25214  -11.15505   -5.82284
      H1     1.85698  -11.65464   -5.11043
       H    -4.21458  -18.41156   -5.12767
       O    -3.28276  -18.75073   -4.95786
      H1    -2.69299  -18.26530   -5.53005
       H     6.55220  -13.92579   -5.45925
       O     5.84118  -13.64875   -4.91026
      H1     5.14676  -14.27472   -5.14652
       H     3.10601  -10.05348   -8.64440
       O     3.39813   -9.14929   -8.52508
      H1     3.48033   -8.72614   -9.38530
       H     3.10116   -9.96822    1.39306
       O     2.94718  -10.47146    0.60111
      H1     3.00590   -9.87757   -0.16831
       H    -1.87558  -14.44857   -5.09093
       O    -1.65587  -13.55874   -5.32020
      H1    -2.06330  -12.94134   -4.73009
       H     0.04199  -13.31437   -4.39581
       O     0.86350  -12.90233   -4.16367
      H1     0.49532  -12.36320   -3.42647
       H     3.92746  -13.36297   -0.78938
       O     4.05190  -13.42069    0.16329
      H1     3.59110  -12.62338    0.43960
       H    -3.22251  -11.15315   -2.90740
       O    -2.78297  -11.21102   -3.79236
      H1    -2.88126  -10.34661   -4.18822
       H     5.20801  -10.37465   -5.07315
       O     5.06167  -11.03031   -5.72473
      H1     5.43499  -11.84930   -5.47770
       H     2.73411  -12.06212   -8.07141
       O     2.75186  -11.77373   -8.96789
      H1     1.79290  -11.52961   -8.99736
       H     0.73306  -19.44428   -4.68490
       O     0.28062  -19.96745   -4.02555
      H1    -0.39956  -19.42087   -3.56100
       H    -4.24134  -13.78349   -6.59700
       O    -4.54562  -14.65834   -6.32612
      H1    -4.74129  -14.61366   -5.38126
       H    -4.68157  -14.83881   -0.71223
       O    -4.08661  -14.33484   -1.30469
      H1    -3.27969  -14.89514   -1.38742
       H    -4.18636  -13.52261  -10.36832
       O    -3.32240  -13.13108  -10.15228
      H1    -3.44225  -12.85324   -9.21934
       H     2.53084   -8.46825   -7.02822
       O     1.79874   -8.47317   -6.38967
      H1     1.87250   -9.32940   -5.91954
       H    -0.92516  -11.06019  -10.31278
       O     0.01470  -11.29048  -10.10167
      H1     0.11192  -12.22619  -10.13523
       H     2.76892   -8.48259   -1.48025
       O     2.78746   -9.36156   -1.89647
      H1     2.76841   -9.21619   -2.86033
       H    -0.81015  -15.78391   -1.17533
       O    -1.76030  -15.84644   -1.06274
      H1    -2.06561  -16.73132   -1.26897
       H    -2.51493  -15.49076   -6.64149
       O    -1.82919  -16.14291   -6.39551
      H1    -1.10328  -15.82636   -6.88349
       H    -3.03246  -12.16604   -7.12745
       O    -3.85610  -12.47637   -7.51601
      H1    -4.47140  -11.72072   -7.54410
       H    -0.87200  -10.83516   -8.01544
       O    -1.70948  -10.39305   -7.76376
      H1    -1.73107  -10.16668   -6.81348
       H    -1.97178  -15.51835    0.95399
       O    -1.91213  -15.94553    1.79478
      H1    -1.82040  -15.14705    2.35318
       H    -6.14858  -14.10463   -3.44446
       O    -5.42674  -14.66655   -3.59309
      H1    -4.86963  -14.51828   -2.77513
       H     2.59531  -17.28304   -2.39052
       O     3.04206  -16.38820   -2.21720
      H1     3.94079  -16.50767   -1.99369
       H    -4.64932  -10.96972   -1.20149
       O    -5.24016  -11.73950   -1.07786
      H1    -4.67572  -12.50444   -0.85965
       H     0.72681  -18.57269   -6.63056
       O     1.52699  -18.53820   -6.03942
      H1     1.95152  -17.65652   -6.24398
       H     0.77177  -13.86989   -1.32861
       O     1.11639  -14.59566   -0.71955
      H1     1.78330  -15.12504   -1.23385
       H    -2.26605  -18.42762   -3.08019
       O    -1.49872  -18.37106   -2.54208
      H1    -1.87717  -19.03903   -1.92822
       H     3.18809  -15.18043   -3.58254
       O     3.32402  -14.71348   -4.38275
      H1     2.55405  -14.13351   -4.42902
       H    -1.55301   -8.30949   -5.55794
       O    -2.17723   -8.66812   -4.97450
      H1    -2.81672   -7.92820   -4.87678
       H     1.62673  -11.86468    0.81875
       O     0.84130  -12.28068    1.11013
      H1     0.92543  -13.21295    0.76401
       H     1.29982  -15.54723   -7.54409
       O     0.41989  -15.52837   -7.95165
      H1     0.36788  -16.20164   -8.63962
       H     1.86354  -13.49917  -10.37705
       O     1.00123  -13.93490  -10.42814
      H1     0.70006  -14.29720   -9.56330
       H     3.38607  -16.24474   -7.06504
       O     2.68753  -16.27709   -6.41969
      H1     3.05233  -15.78308   -5.70960
       H     0.28743   -7.70271   -7.08391
       O    -0.55229   -7.23757   -6.99293
      H1    -1.07103   -7.32876   -7.81487
       H     4.42711  -13.38292   -3.10642
       O     4.29820  -12.67856   -2.42531
      H1     4.96063  -12.00606   -2.48932
       H     0.02809  -10.08435   -2.87880
       O    -0.02968   -9.29626   -3.49556
      H1    -0.93044   -9.21926   -3.91729
       H    -3.78253   -8.95819   -1.28659
       O    -3.39138   -9.78366   -1.49930
      H1    -2.66069  -10.03047   -0.92209
       H     0.07833  -11.08320   -0.96525
       O     0.67133  -11.49561   -1.71041
      H1     1.54121  -11.13231   -1.56059

