132
frame 8 | Written by MDAnalysis XYZWriter (release 2.4.3)
       H    -7.05642    9.55148  -17.74268
       O    -7.83030   10.05711  -17.51035
      H1    -7.52777   10.98286  -17.62916
       H   -16.40162   12.22956  -19.10828
       O   -16.47377   11.30018  -19.35115
      H1   -15.55122   10.97345  -19.25952
       H    -5.41028    5.23449  -16.47184
       O    -5.80116    6.05936  -16.11959
      H1    -5.41013    6.14568  -15.23380
       H   -13.44800   18.49700  -17.95395
       O   -12.55587   18.19248  -18.23094
      H1   -11.96544   18.81656  -17.87492
       H    -8.52440   11.37879  -12.14579
       O    -9.01363   12.06335  -12.62917
      H1    -9.13650   12.75693  -11.91698
       H    -4.42292   15.81031  -15.03343
       O    -4.08756   15.10531  -15.62360
      H1    -4.53197   15.28979  -16.49267
       H    -9.72574    7.45212  -16.31321
       O    -9.27805    8.01682  -15.68598
      H1    -8.89497    8.73469  -16.20334
       H    -1.54905   17.40130  -17.30628
       O    -0.79635   17.27573  -16.71498
      H1    -0.75000   16.30557  -16.67406
       H    -4.30862   16.80117  -18.20262
       O    -4.88554   16.09290  -17.97295
      H1    -4.83766   15.41828  -18.64281
       H    -8.93616    5.57959  -20.16559
       O    -9.70651    5.45972  -19.60004
      H1    -9.98839    6.27190  -19.14630
       H    -4.65169   13.07710  -15.19499
       O    -4.83967   12.25109  -15.56971
      H1    -4.67188   11.50673  -14.96192
       H   -11.37093    6.80790  -17.09492
       O   -10.68344    7.10419  -17.71317
      H1   -10.88403    8.08284  -17.64881
       H    -5.92701    7.55496  -17.39399
       O    -6.00265    8.36121  -17.94746
      H1    -5.20931    8.80542  -17.74918
       H    -2.32582    7.47701  -17.61318
       O    -2.48665    7.94909  -16.73563
      H1    -2.87556    8.85258  -16.93205
       H    -1.45407   10.04609  -14.26535
       O    -1.46242   10.94076  -14.74238
      H1    -2.01862   10.78362  -15.49366
       H   -11.01369   15.31864  -13.95961
       O   -11.01738   14.45896  -13.53325
      H1   -10.50715   13.83654  -14.10515
       H   -13.69347    9.93452  -19.75174
       O   -13.87829   10.03821  -18.82159
      H1   -14.17204    9.17909  -18.51528
       H    -8.83532   18.60072  -13.45842
       O    -8.33247   17.90554  -12.99435
      H1    -7.77047   17.41510  -13.62596
       H   -13.36282   14.17176  -13.64447
       O   -14.25071   13.95899  -13.32469
      H1   -14.60871   13.47873  -14.07568
       H    -7.13492   10.14221  -11.10460
       O    -7.68236    9.95999  -11.85774
      H1    -8.38126    9.26405  -11.72382
       H    -5.40751   11.11602  -12.71623
       O    -5.34989   11.92804  -12.17827
      H1    -5.69036   12.54562  -12.83727
       H   -11.03790   10.57422  -14.10304
       O   -10.93579   10.15519  -14.92119
      H1   -10.47551    9.37480  -14.63326
       H    -5.25632   17.29858  -13.86314
       O    -6.04794   16.91956  -14.31328
      H1    -6.18455   17.26316  -15.18641
       H    -6.73386   16.83815  -17.64083
       O    -7.37324   16.83641  -16.88130
      H1    -8.31742   16.71947  -17.20082
       H   -12.58955   16.55418  -17.59977
       O   -12.19470   15.83970  -17.05869
      H1   -12.65329   15.01663  -17.17770
       H    -0.18273   12.99552  -18.94532
       O    -0.42657   13.93456  -18.98436
      H1    -0.90238   14.04824  -18.08114
       H   -12.77033   13.20021  -17.30405
       O   -13.61523   13.60341  -17.48390
      H1   -13.86848   13.41385  -18.45003
       H    -7.04456   14.96405  -16.28010
       O    -7.28430   14.06949  -16.48608
      H1    -6.89669   13.56689  -15.80164
       H   -10.62322   12.44110  -16.82908
       O   -11.18993   12.33939  -17.65436
      H1   -11.24101   11.35837  -17.64589
       H    -7.87704   12.92994  -19.49532
       O    -7.12867   12.57334  -18.99825
      H1    -6.94645   13.31201  -18.32927
       H   -10.68569   16.13009  -18.25164
       O    -9.96825   16.39940  -18.86913
      H1   -10.24519   17.20582  -19.28713
       H    -3.09653   18.83031  -18.23334
       O    -2.87848   17.91586  -18.20007
      H1    -2.58555   17.81703  -19.10995
       H    -1.31840   14.26063  -15.27119
       O    -1.20260   14.67542  -16.17954
      H1    -2.03024   15.16891  -16.19005
       H    -7.81162   13.38596  -13.22756
       O    -6.94074   13.76453  -13.42164
      H1    -6.95355   14.72386  -13.30123
       H    -7.57011    9.12485  -13.29965
       O    -7.27548    8.45471  -13.97681
      H1    -8.00899    8.23383  -14.61121
       H   -11.40825   17.27074  -15.49398
       O   -11.54885   17.36189  -14.53302
      H1   -12.47964   17.30808  -14.28954
       H   -14.91666   12.75568  -16.25262
       O   -15.45356   12.60767  -15.43080
      H1   -16.40751   12.74541  -15.71315
       H   -12.42787    9.92253  -17.77146
       O   -11.49213    9.74936  -17.47094
      H1   -11.35043    9.91812  -16.54101
       H   -10.52327   18.88917  -14.49994
       O    -9.83109   19.48623  -14.85049
      H1   -10.09934   20.37193  -14.63440
       H    -4.35128    9.16871  -13.81172
       O    -4.87850    9.70226  -14.41867
      H1    -5.74130    9.27933  -14.21101
       H    -9.06010   13.62065  -15.77794
       O    -9.65261   12.95893  -15.46525
      H1    -9.31678   12.35958  -14.71762
       H   -10.24093   12.39243  -19.10542
       O    -9.64845   12.35516  -19.89040
      H1    -9.35911   11.41277  -20.02066
       H   -14.86168   15.25915  -16.99252
       O   -15.55563   15.79935  -16.71809
      H1   -16.24298   15.16335  -16.47429
       H    -3.21959   10.57578  -18.35690
       O    -3.43369   10.32258  -17.43857
      H1    -3.96188   11.08872  -17.06825

