132
frame 2 | Written by MDAnalysis XYZWriter (release 2.4.3)
       H     9.28825    8.42610  -12.14974
       O     8.74887    8.84244  -11.44278
      H1     9.11515    8.61871  -10.52482
       H     9.61516   14.94381  -12.82693
       O     9.07479   15.47149  -13.38487
      H1     8.71559   15.03210  -14.16499
       H     1.02245   13.45609   -7.13828
       O     1.84795   13.04758   -6.94913
      H1     2.48035   13.77314   -6.67255
       H     7.30478   16.13208  -13.21039
       O     6.42267   16.53312  -13.29686
      H1     6.44933   17.04436  -12.45819
       H     2.16368   14.34023  -10.72571
       O     2.51421   14.76928   -9.93805
      H1     1.77068   15.02089   -9.40555
       H     3.34828   12.51558  -11.35132
       O     3.71293   11.97182  -10.60962
      H1     2.90596   11.96836  -10.07329
       H     7.08584   13.66042   -6.37832
       O     7.69384   13.31681   -5.65111
      H1     7.54926   12.35808   -5.58664
       H     8.02536   10.30481   -5.56361
       O     7.38807   10.55150   -4.88453
      H1     6.63312    9.99116   -5.01677
       H     5.13335   13.71918  -15.52081
       O     5.80116   13.44813  -16.12683
      H1     6.29088   12.72698  -15.67789
       H    10.36463   13.00086  -10.39633
       O     9.50907   13.18087  -10.83927
      H1     9.49533   12.47810  -11.61519
       H    11.91181   10.78230  -10.97252
       O    11.92383   11.56619  -10.34027
      H1    11.61248   11.08481   -9.48552
       H     4.15972    8.54000  -12.29387
       O     4.97540    8.12580  -11.89366
      H1     5.58932    8.83077  -11.61389
       H    10.44577   15.80308   -7.80653
       O     9.66459   15.66255   -8.39766
      H1     9.88918   16.24640   -9.15030
       H    12.44156    8.95387  -11.79363
       O    11.54373    9.36837  -11.90401
      H1    10.96787    9.07148  -11.19778
       H     5.89218   15.98301   -8.72056
       O     6.66936   15.97397   -9.28574
      H1     7.29787   15.36378   -8.94135
       H     5.71818    9.32344  -14.84699
       O     5.76529    9.02804  -15.78698
      H1     6.20141    9.69901  -16.38427
       H     9.69288    5.01975  -12.96361
       O     9.39041    5.89360  -12.70310
      H1     9.60142    6.55056  -13.38724
       H     6.94986    5.74171   -8.97469
       O     7.28973    5.04797   -9.54178
      H1     6.52690    4.69939   -9.95985
       H     9.53767    8.40557   -8.36097
       O     9.91993    7.98241   -9.15903
      H1     9.57042    7.10321   -9.13595
       H     5.82187   17.46413  -10.59200
       O     6.02717   18.26870  -11.14785
      H1     5.15230   18.42813  -11.63600
       H    11.60561    9.85559   -7.40599
       O    11.12047   10.29054   -8.10652
      H1    10.62395   10.99066   -7.67657
       H     9.50454   12.53073   -6.21923
       O    10.35041   12.39307   -6.63655
      H1    11.02660   12.73662   -6.00748
       H     1.62272   10.72514   -9.13640
       O     1.55362   11.65744   -9.22068
      H1     1.61570   12.09310   -8.35655
       H     7.94747   12.95483  -10.20499
       O     7.03604   12.84440   -9.92175
      H1     6.61566   13.47793  -10.50597
       H     3.82537    9.76863  -15.97502
       O     3.01192   10.04498  -15.59445
      H1     3.10814    9.77271  -14.64968
       H     3.62048   12.04025  -14.79928
       O     3.69298   12.75415  -14.10999
      H1     4.36969   12.41670  -13.51240
       H     9.34465    8.74054   -6.40762
       O     8.59283    9.02269   -6.93592
      H1     8.00267    8.23132   -6.99896
       H    10.13046   11.85141  -13.78606
       O     9.33239   11.72900  -13.18942
      H1     9.44861   10.87004  -12.78666
       H     5.83547    6.90004   -7.33931
       O     6.74856    7.05434   -7.67883
      H1     6.69447    7.98809   -7.97010
       H     5.31080   10.32610   -8.45643
       O     5.48048   10.35457   -7.52333
      H1     5.11386    9.57200   -7.08305
       H    10.78836    6.41800  -10.96066
       O    11.50884    5.83935  -10.60880
      H1    11.94169    6.43797  -10.02156
       H     9.49394    8.63256  -14.80439
       O     9.80863    8.32884  -13.95830
      H1    10.65222    8.78981  -13.84198
       H     7.37944   10.03739  -11.25602
       O     6.48209   10.28085  -10.89663
      H1     6.56477   11.18192  -10.62676
       H     5.74833   15.13825  -12.31813
       O     5.39118   14.48046  -11.71276
      H1     4.69763   14.87210  -11.19432
       H     4.40235    7.69986  -10.18551
       O     3.99625    7.70421   -9.30640
      H1     3.72316    6.80282   -9.22162
       H     4.82560    8.43282   -5.18685
       O     4.95035    9.15809   -4.58840
      H1     4.36815    9.88201   -4.85555
       H     4.10825   15.01485   -5.46067
       O     3.83527   14.86350   -6.36316
      H1     4.51567   14.25301   -6.70259
       H     2.39884   13.31863  -12.97349
       O     1.68161   13.62650  -12.36897
      H1     0.82441   13.37572  -12.68251
       H     6.58406   11.04675  -13.92722
       O     5.71671   10.84955  -13.48517
      H1     5.93965   10.75553  -12.48931
       H     6.22190   13.35672   -8.40349
       O     5.81223   13.23532   -7.51342
      H1     5.54902   12.32511   -7.55391
       H     7.52183    6.03230  -12.60077
       O     6.60357    6.03441  -12.81694
      H1     6.11765    6.66047  -12.32761
       H     2.43811    9.83387  -11.68415
       O     2.44769    9.37359  -12.54000
      H1     1.81073    8.69810  -12.44490
       H     1.41026    8.61731   -8.46127
       O     1.48034    8.99009   -9.33305
      H1     2.37948    8.71166   -9.53370
       H     8.42564   11.71225  -14.82086
       O     7.60404   11.52931  -15.34195
      H1     7.80775   11.12034  -16.18799

