132
frame 10 | Written by MDAnalysis XYZWriter (release 2.4.3)
       H    17.29127   -1.62094   13.03386
       O    16.48247   -1.24973   13.38225
      H1    16.68308   -0.51520   13.97548
       H    16.05704   -2.13930   17.14054
       O    16.18588   -1.28317   16.69130
      H1    15.34571   -0.81485   16.65919
       H    18.92232   -3.34898   12.21279
       O    18.82348   -2.37641   12.23113
      H1    19.68086   -2.07187   12.47089
       H    16.64944    1.58426   15.42026
       O    17.17485    0.81909   15.17972
      H1    17.19937    0.25166   15.98140
       H    14.98249   -8.27340    9.83538
       O    14.18061   -8.10405    9.29880
      H1    14.38042   -7.23885    8.90640
       H    18.18360   -4.74727    7.25292
       O    17.46715   -4.24880    6.90154
      H1    17.00374   -4.09797    7.73127
       H    16.00750   -1.20245   11.61723
       O    15.83744   -1.26369   10.67444
      H1    15.99894   -2.21812   10.44386
       H    16.56448    3.61761   13.76660
       O    16.60902    3.79982   14.71475
      H1    15.83371    3.47273   15.16498
       H    13.48819   -1.21643   11.82892
       O    12.80064   -0.69110   12.27577
      H1    11.95142   -0.74683   11.78959
       H    14.86621    1.21837   13.27055
       O    14.16517    1.31335   13.94892
      H1    13.45135    0.81631   13.55308
       H    13.79806   -7.89576   16.55507
       O    14.23549   -7.59478   15.73895
      H1    13.55145   -7.65035   15.09658
       H    12.82412   -4.00741   18.36611
       O    13.40255   -4.66154   17.87110
      H1    14.27280   -4.33745   18.12051
       H    19.00466  -10.36814   15.43204
       O    18.19317  -10.69259   14.93618
      H1    17.84074   -9.93026   14.45898
       H    16.63590    1.61360    9.40038
       O    16.04415    2.36214    9.54872
      H1    15.16039    1.96108    9.70901
       H    15.54369   -4.32603    9.50002
       O    16.31714   -3.75512    9.33623
      H1    16.97369   -3.99304   10.04987
       H    16.94837   -0.34851    9.72663
       O    17.64954    0.01492    9.10667
      H1    18.44298   -0.03252    9.59537
       H    16.47842   -4.21568   18.77311
       O    15.76531   -3.62097   18.50410
      H1    15.91515   -2.83629   19.01517
       H    18.98631   -2.19634    9.70916
       O    19.50719   -2.21285    8.92297
      H1    18.83436   -2.07937    8.21481
       H    10.20063   -5.63602   15.65025
       O    10.88051   -5.63317   14.92825
      H1    11.69798   -5.17578   15.30850
       H    18.85013   -3.65488   15.02631
       O    18.00725   -4.08956   14.89718
      H1    17.33281   -3.48346   14.59807
       H    15.52505   -6.83372   11.96686
       O    14.59079   -6.53815   11.88395
      H1    14.52954   -5.80060   12.47413
       H    15.49812    2.38222   19.89683
       O    16.06443    2.48435   19.14487
      H1    15.54757    2.57646   18.31108
       H    18.27671   -0.04490   19.70977
       O    17.85754   -0.86092   19.34700
      H1    17.59738   -0.70652   18.43216
       H    10.51523   -0.92092   16.91505
       O    11.32949   -1.44414   16.99400
      H1    11.63953   -1.62173   16.11689
       H    19.82859   -8.04718   19.94436
       O    19.47357   -7.89933   19.06547
      H1    18.86712   -8.55744   18.80068
       H    16.07223    2.42828   11.34739
       O    16.39468    2.45225   12.29973
      H1    17.17888    1.92964   12.35468
       H    17.72781    1.55890   18.74753
       O    18.46330    1.51900   18.13948
      H1    19.03238    2.28401   18.38655
       H    13.04634   -2.44701    9.67535
       O    12.74376   -1.81417    8.99875
      H1    12.07668   -2.23024    8.57678
       H    19.29404   -5.57838    9.51315
       O    19.65374   -5.07362    8.77324
      H1    19.63386   -4.15527    8.98575
       H    12.50603   -3.28701   15.15568
       O    13.16719   -4.04073   15.36024
      H1    13.15447   -4.14747   16.33336
       H    17.54094   -7.88775   14.05926
       O    16.83959   -8.55264   13.92864
      H1    16.19677   -8.29064   14.60491
       H    15.98948   -6.84234   15.75304
       O    16.86077   -6.41327   15.82767
      H1    16.97052   -5.66898   15.14879
       H    17.82403   -5.52380   11.90158
       O    17.23001   -4.75915   11.72224
      H1    16.56698   -4.63353   12.42372
       H    14.29809    2.16702   16.69199
       O    14.98817    2.80191   16.76119
      H1    14.49294    3.61530   16.95781
       H    18.89365   -5.96061   14.03966
       O    19.24009   -6.56688   13.38362
      H1    20.13389   -6.70811   13.69065
       H    12.68576   -0.17183   16.37419
       O    13.50976    0.42393   16.37531
      H1    13.78971    0.73596   15.46628
       H    19.20852  -10.50781   18.88271
       O    18.27142  -10.61626   18.74533
      H1    18.06146  -11.38136   18.20279
       H    14.46328   -3.90778   14.35942
       O    15.11762   -3.71545   13.63357
      H1    15.50023   -2.84327   13.71682
       H    12.31744   -3.84363   11.59786
       O    13.25691   -3.46035   11.34631
      H1    13.76647   -3.54036   12.15785
       H    16.18399   -9.11457   11.30034
       O    16.46612   -8.78180   10.41235
      H1    16.86708   -9.53514   10.05282
       H    19.09674   -7.89690    9.48109
       O    19.04944   -7.44066   10.39302
      H1    18.14656   -7.62099   10.65348
       H    18.20142   -6.23433   18.72952
       O    17.61228   -5.58228   18.33351
      H1    17.28471   -5.98428   17.48532
       H    10.87971   -1.45468   14.40184
       O    11.48563   -2.16941   14.24197
      H1    11.91054   -1.83709   13.41636
       H    19.15342    2.51364   16.35658
       O    19.31550    3.23874   15.76295
      H1    18.47540    3.45202   15.40821

