132
frame 4 | Written by MDAnalysis XYZWriter (release 2.4.3)
       H     9.20507    4.76990   -8.85001
       O     9.97043    5.23669   -8.61650
      H1     9.79160    5.42658   -7.69162
       H    12.31234    5.62583   -6.57185
       O    11.96141    5.06650   -5.86149
      H1    12.35931    5.51660   -5.08709
       H    12.09552   -0.05201  -10.68106
       O    11.74368   -0.29554   -9.80260
      H1    10.85517   -0.71143   -9.94745
       H    12.50290    0.61935   -6.80336
       O    12.98614   -0.15917   -7.25425
      H1    12.53282   -0.42839   -8.09642
       H    14.76832    2.79222   -6.24342
       O    14.71076    2.98137   -5.28003
      H1    14.69565    3.98787   -5.30239
       H    13.19453    4.75798  -13.05247
       O    13.45236    4.32302  -12.24944
      H1    12.91176    4.88557  -11.68987
       H    10.22607    3.14832   -1.94885
       O    10.95948    3.78322   -2.06728
      H1    11.41658    3.51837   -2.84618
       H    15.95200    6.58765   -5.91660
       O    15.33568    5.95115   -5.48509
      H1    15.92489    5.73609   -4.73751
       H     9.68916    1.89316   -7.14200
       O     8.77975    1.53137   -7.37710
      H1     8.67435    1.79513   -8.24136
       H     7.13894    6.03139   -9.94047
       O     7.24304    5.36898  -10.68531
      H1     6.40080    5.01020  -10.96842
       H     9.96383    8.52494   -9.39436
       O     9.56754    8.31712  -10.25768
      H1     9.53908    7.33958  -10.31127
       H    10.23051    0.81889   -2.16732
       O     9.51675    1.51418   -2.13103
      H1     8.74365    1.09730   -2.50673
       H    12.68682    0.48177   -1.17957
       O    12.03792    0.45649   -1.89825
      H1    11.63091   -0.46000   -1.88560
       H    10.31334    2.84542  -11.01179
       O    10.73239    2.97068  -11.88894
      H1    10.25110    3.67463  -12.32468
       H    16.78819   -1.40943   -9.07792
       O    16.34064   -0.85589   -9.70999
      H1    15.55961   -1.35349  -10.00050
       H    13.16933    2.53027   -4.23418
       O    12.29670    2.12724   -4.08299
      H1    12.30447    1.84940   -3.15840
       H     5.62180    5.20195   -6.60366
       O     6.16213    4.53841   -7.07206
      H1     6.37652    3.89277   -6.39869
       H    10.06187    8.28109   -6.28473
       O     9.52013    8.28999   -7.08432
      H1     9.05219    7.43640   -7.16366
       H     7.14462    1.96732   -9.98888
       O     7.91427    2.51471   -9.78560
      H1     7.64712    3.42661   -9.88219
       H    13.49123    5.40081   -2.89224
       O    12.91568    6.12589   -3.25130
      H1    13.44038    6.78492   -3.75164
       H    16.24308    3.37493   -4.24912
       O    17.03755    3.59889   -3.66219
      H1    17.82195    3.24158   -4.07705
       H     9.36032    5.23516   -5.04304
       O     9.16404    4.73514   -5.86486
      H1    10.04683    4.48044   -6.15833
       H     7.03594    6.23385   -7.77649
       O     7.42292    6.90244   -8.38077
      H1     6.60768    7.40044   -8.66171
       H     7.12232    1.80563   -3.70497
       O     6.92850    1.09749   -3.08742
      H1     6.67401    1.54852   -2.28677
       H    11.15896    5.59725   -9.94563
       O    11.85246    5.80519  -10.61013
      H1    12.53077    6.16259  -10.01256
       H     8.67806    0.19729  -12.38300
       O     8.90935    0.96300  -12.93747
      H1     9.56868    1.41643  -12.32896
       H     9.73551   -2.15349   -9.63323
       O     9.84138   -2.11191  -10.60752
      H1     8.95776   -1.98923  -10.93866
       H     9.24153   -0.55314   -7.67117
       O     9.33711   -1.45833   -8.01297
      H1     9.26059   -2.04230   -7.22539
       H    12.78383   -3.51277   -6.51938
       O    13.57928   -2.89178   -6.63162
      H1    13.10266   -2.07742   -6.88140
       H    11.63518    2.53937   -5.73346
       O    11.34173    2.18841   -6.63405
      H1    11.80941    2.70688   -7.32020
       H    16.41328    0.28348   -5.83219
       O    16.76649    0.14711   -4.94016
      H1    15.88179   -0.08360   -4.55111
       H    13.05002   -0.44106   -4.00180
       O    13.87647   -0.90967   -4.15714
      H1    13.55858   -1.46217   -4.84842
       H    13.86252    3.03671   -8.66612
       O    14.63234    3.22211   -8.18108
      H1    15.13104    2.35951   -8.20074
       H    16.06659    4.14395   -7.88412
       O    17.03600    4.40238   -7.78923
      H1    17.44247    4.07493   -8.61876
       H    15.87854    0.20736   -8.34030
       O    15.56810    0.80270   -7.60329
      H1    14.63555    0.47247   -7.53296
       H    15.72886    6.17818  -12.03848
       O    16.02344    5.26948  -11.96373
      H1    15.22274    4.77585  -12.05511
       H    12.15661    1.97652  -14.60882
       O    12.13853    1.38813  -13.81343
      H1    11.75622    1.98417  -13.18035
       H    14.82155    7.42646   -4.43715
       O    14.12821    8.14062   -4.36125
      H1    14.36759    8.61169   -3.59779
       H    12.33234    3.34136  -10.11609
       O    12.09243    2.81087   -9.35221
      H1    12.05248    1.87480   -9.67570
       H    13.57987    7.85873   -8.67590
       O    13.71819    6.85701   -8.65593
      H1    14.67999    6.73494   -8.67671
       H     7.67724    2.17836   -6.20416
       O     7.28247    2.77330   -5.47516
      H1     7.92507    3.54622   -5.55173
       H    17.33406    7.11807   -9.31913
       O    16.80392    7.04401   -8.55035
      H1    16.91213    6.13553   -8.26772
       H    15.38687    4.09292   -1.82199
       O    14.46141    4.33154   -1.91578
      H1    14.13464    4.54097   -1.05917
       H     9.74070    5.40448   -2.69131
       O     9.29362    6.12890   -3.15780
      H1     8.55718    6.41864   -2.63432

