132
frame 11 | Written by MDAnalysis XYZWriter (release 2.4.3)
       H   -18.82859    0.57956   -3.59820
       O   -19.05928    1.32947   -4.13654
      H1   -18.24360    1.47225   -4.62790
       H   -16.35478   -1.27812  -10.00137
       O   -15.54736   -0.94752  -10.36378
      H1   -15.00529   -0.57364   -9.64318
       H   -12.89188    3.43911   -4.45466
       O   -12.27952    3.17160   -5.20725
      H1   -11.80688    2.42965   -4.82738
       H   -16.20720   -5.14569   -2.28255
       O   -16.41210   -4.38992   -2.94842
      H1   -17.40226   -4.51115   -3.20509
       H   -10.99162    4.10937   -5.19900
       O   -10.20146    4.72008   -5.03408
      H1   -10.64473    5.41617   -4.48610
       H   -16.31752   -5.35305   -5.06729
       O   -16.80637   -6.08718   -5.43039
      H1   -17.71792   -5.84749   -5.24492
       H   -13.75634   -3.42242   -4.82134
       O   -14.04454   -4.13484   -4.25263
      H1   -14.87412   -3.85892   -3.83513
       H   -12.73881   -2.11077   -0.03167
       O   -11.95795   -2.16167   -0.67977
      H1   -11.26495   -2.05619   -0.02439
       H   -15.69551   -4.02756   -8.39247
       O   -15.42861   -4.72931   -9.02145
      H1   -14.78771   -4.31199   -9.59308
       H   -17.47972   -3.04882   -6.90514
       O   -16.65812   -3.49297   -6.87920
      H1   -15.97576   -2.87117   -6.53882
       H   -13.90410    1.13048   -7.93779
       O   -13.80296    0.22888   -8.17292
      H1   -12.98292    0.21651   -8.66266
       H   -10.04318    0.57941    1.82701
       O    -9.54320    1.23931    1.32817
      H1    -9.52841    0.95377    0.39317
       H   -13.38902    0.32828    1.81164
       O   -13.69661    0.08195    2.65117
      H1   -14.01986   -0.81718    2.45382
       H   -16.21037    2.09430   -2.55636
       O   -15.42043    1.83677   -3.07038
      H1   -15.71166    1.99690   -3.99063
       H   -13.71648   -6.97277   -6.59149
       O   -13.03724   -6.65896   -5.93202
      H1   -13.57140   -6.07601   -5.33990
       H   -18.97433   -1.74023   -4.89651
       O   -19.22161   -2.21363   -5.74216
      H1   -19.40644   -1.50004   -6.40868
       H   -14.05165    3.05633   -6.38535
       O   -14.42105    2.76296   -7.19937
      H1   -14.60096    3.56762   -7.70981
       H   -13.50737   -1.09526   -3.78423
       O   -14.46159   -0.92987   -3.65580
      H1   -14.66868   -0.03568   -3.42247
       H   -14.97704    3.14131    0.15831
       O   -14.78552    4.06178    0.40500
      H1   -14.61166    4.63082   -0.34830
       H   -11.65451   -6.22679   -7.09090
       O   -11.04888   -5.77582   -7.65688
      H1   -11.43529   -5.88467   -8.52749
       H   -17.06659    3.09409   -5.74968
       O   -16.76281    2.22997   -5.54683
      H1   -16.17046    2.11219   -6.25402
       H   -10.66527    1.37049   -2.42962
       O   -11.48659    1.53456   -2.98532
      H1   -11.88151    2.28229   -2.56559
       H   -12.64679   -4.63919   -2.47758
       O   -12.19336   -5.27195   -1.86228
      H1   -11.71808   -4.73764   -1.26312
       H   -14.34576   -0.77728   -6.85763
       O   -14.78008   -1.57216   -6.42432
      H1   -14.71864   -1.48014   -5.47453
       H   -10.36856   -1.06024   -4.71157
       O    -9.70337   -0.77511   -5.31367
      H1    -9.67525   -1.48619   -5.96552
       H   -11.67516    3.60374    0.39524
       O   -11.66485    3.34687   -0.55815
      H1   -12.55947    3.57623   -0.91726
       H   -11.20823   -2.77031   -9.42002
       O   -11.00108   -2.92368  -10.32142
      H1   -11.86943   -2.73525  -10.70147
       H    -7.69587   -0.54172   -5.20840
       O    -6.75278   -0.54687   -5.14480
      H1    -6.53674   -0.51056   -4.21072
       H    -8.04402   -2.42875   -1.43993
       O    -7.89941   -1.69263   -0.88502
      H1    -7.97367   -1.90505    0.02701
       H   -17.02665   -3.48283   -0.58680
       O   -17.19068   -2.57739   -0.44767
      H1   -16.43637   -2.21210   -0.91900
       H    -8.54440   -3.16960   -7.16321
       O    -9.12547   -2.44301   -7.41875
      H1    -8.74328   -2.08970   -8.25817
       H   -12.35593    0.06909   -0.63072
       O   -12.55579    0.67632    0.06325
      H1   -11.77404    1.22319   -0.02521
       H   -19.61503   -0.89014   -2.27397
       O   -18.84250   -1.15121   -2.73529
      H1   -18.14768   -1.48040   -2.14979
       H   -14.21059    3.16398   -2.37781
       O   -13.35767    3.61636   -2.51858
      H1   -13.64203    4.55213   -2.52614
       H   -14.83683   -1.19248   -1.74421
       O   -15.15465   -1.09893   -0.82229
      H1   -15.37174   -0.19536   -0.67311
       H   -12.89845   -8.23968   -1.88841
       O   -13.43899   -7.51215   -1.50481
      H1   -12.98917   -6.70333   -1.63710
       H   -11.66684   -0.29826   -3.32943
       O   -11.67857   -1.26324   -3.37459
      H1   -11.74288   -1.56492   -2.43595
       H    -8.44855   -4.70966   -2.70874
       O    -7.88267   -4.41041   -2.00612
      H1    -7.77509   -5.15824   -1.38951
       H   -14.27768    1.28776    0.19127
       O   -15.24997    1.44890    0.23535
      H1   -15.52337    1.33567    1.18068
       H   -17.60980    3.93338   -2.82781
       O   -17.98791    3.23513   -2.29113
      H1   -18.60334    2.82101   -2.93458
       H    -9.74933    0.55209   -7.42101
       O    -8.91402    0.65727   -7.88345
      H1    -8.35325    1.27168   -7.33552
       H   -11.64389   -3.95067   -7.29606
       O   -11.65281   -3.04374   -7.56864
      H1   -10.73126   -2.78548   -7.63216
       H   -14.87017   -2.01421    1.09791
       O   -14.22237   -2.63817    1.52202
      H1   -14.68977   -3.37343    1.89363
       H    -8.98355   -0.03883   -1.37658
       O    -9.33457    0.83343   -1.32813
      H1    -8.55837    1.37536   -1.55401

