135
frame 0 | Written by MDAnalysis XYZWriter (release 2.4.3)
       H    -8.05963    8.89834  -17.19049
       O    -9.02948    8.76231  -17.35783
      H1    -9.43062    8.69198  -16.52775
       H    -7.41606    6.27551  -17.85619
       O    -6.70459    6.19357  -17.19295
      H1    -5.84967    6.16890  -17.73150
       H    -5.37141   11.60217  -13.44671
       O    -5.06520   12.12850  -12.73392
      H1    -5.18821   11.53121  -12.00739
       H    -6.38927   14.16697  -15.43726
       O    -6.75696   14.30502  -16.28859
      H1    -6.14847   14.98647  -16.59244
       H    -4.32502   16.58567  -17.94512
       O    -4.36129   15.61672  -17.86775
      H1    -4.88124   15.48094  -18.71951
       H    -0.88250    5.58300  -14.07976
       O    -1.48374    4.93878  -14.50040
      H1    -1.45386    4.21248  -13.80198
       H    -9.39707   10.57766  -16.16492
       O    -9.66432   11.21620  -15.49185
      H1   -10.29774   10.76566  -14.96445
       H    -6.08073    7.93337  -17.30427
       O    -6.01476    8.88002  -17.16120
      H1    -5.98190    9.01008  -16.20860
       H    -1.30615   18.56027  -16.60483
       O    -1.89742   18.02582  -17.15252
      H1    -1.48338   17.13611  -16.91621
       H    -1.09235   12.05503  -15.42561
       O    -1.25470   12.91393  -14.93604
      H1    -1.36264   13.66473  -15.48622
       H    -5.46518    4.09992  -14.72051
       O    -5.38628    5.00604  -14.48720
      H1    -4.87620    5.41516  -15.24994
       H    -0.59842    7.28951  -16.55764
       O     0.33769    7.32599  -16.19849
      H1     0.42541    8.27930  -16.09857
       H     1.59451    9.11132  -18.76148
       O     0.98056    9.78955  -19.03624
      H1     0.92763    9.78895  -20.00951
       H     0.60949   10.67951  -15.92253
       O    -0.08021   10.15614  -15.59755
      H1    -0.88830   10.15055  -16.15957
       H    -0.13003    3.32513  -17.23450
       O    -0.34124    3.53682  -18.17940
      H1     0.51831    3.72110  -18.65723
       H    -6.41068    9.67878  -18.65277
       O    -6.47838   10.24295  -19.46373
      H1    -6.60721   11.20864  -19.30440
       H    -5.14267    1.46294  -18.43184
       O    -5.10795    2.47990  -18.44873
      H1    -5.78545    2.79837  -17.82609
       H     1.68451   15.07620  -18.76227
       O     2.40301   15.40542  -19.22348
      H1     3.04069   15.92151  -18.69121
       H    -6.33633    6.87759  -14.24818
       O    -7.11535    7.45507  -14.20458
      H1    -7.13120    7.51219  -13.27313
       H    -4.89450    9.41321  -14.33910
       O    -5.53373   10.06152  -14.69312
      H1    -6.30989    9.89238  -14.13325
       H     5.68503    6.42283  -17.64615
       O     4.76310    6.09040  -17.48110
      H1     4.19208    6.86937  -17.63206
       H    -4.26910    6.90391  -18.90204
       O    -4.49424    6.01335  -18.65673
      H1    -4.95712    5.65081  -19.42485
       H    -0.24328   11.99189  -12.16706
       O    -1.14228   11.69503  -12.28076
      H1    -1.45560   12.01687  -13.09773
       H     0.21588    6.16383  -12.11206
       O     0.51937    6.29345  -13.06532
      H1     1.28199    5.73382  -13.33670
       H    -0.95405   13.84932  -19.02371
       O    -0.35963   14.30993  -18.37988
      H1    -0.99450   14.86667  -17.84926
       H     1.79520    7.28377  -17.54832
       O     2.58679    7.80699  -17.81572
      H1     2.73345    8.42621  -17.07507
       H     3.82432    8.87166  -15.26293
       O     2.97905    9.12766  -15.66625
      H1     2.38786    9.05107  -14.91948
       H     2.74126   12.43481  -16.38567
       O     3.19388   12.71166  -15.55436
      H1     4.10615   12.58474  -15.73418
       H    -7.63815   13.29871  -19.45506
       O    -6.86290   12.94414  -18.93619
      H1    -6.86883   13.33255  -18.08395
       H    -8.96826    6.99476  -17.95981
       O    -9.15349    6.25096  -18.54058
      H1    -9.76589    5.69972  -18.04742
       H     0.09319    2.29115  -15.68774
       O     0.43956    3.21195  -15.61655
      H1    -0.31424    3.85624  -15.69592
       H    -3.12264    2.48852  -18.62176
       O    -2.46742    2.11497  -19.19001
      H1    -1.65005    2.40047  -18.80854
       H    -3.08093    7.02587  -16.24202
       O    -3.43230    6.65117  -15.39290
      H1    -2.72481    6.01185  -15.18761
       H    -2.47686   15.22447  -16.90246
       O    -1.76289   15.38464  -16.25671
      H1    -2.11307   15.77487  -15.46348
       H    -7.47814    4.53325  -16.87803
       O    -7.54121    3.56927  -16.92063
      H1    -8.27801    3.39358  -16.26076
       H     0.54344   17.52892  -19.86213
       O     0.57729   18.07437  -19.03756
      H1    -0.30214   18.22289  -18.73730
       H    -0.72774   10.20209  -19.00223
       O    -1.63048   10.43262  -19.19389
      H1    -2.03434    9.57321  -19.52155
       H    -2.54065    7.26541  -18.46433
       O    -1.68367    6.95992  -18.19168
      H1    -1.68962    5.95968  -18.17859
       H     2.32377   13.98801  -14.68307
       O     1.53914   14.44316  -14.46282
      H1     0.86325   13.82456  -14.72042
       H    -2.86584    8.84645  -13.01458
       O    -3.70947    8.52295  -13.35971
      H1    -3.48806    7.89755  -14.11896
       H    -0.78925    9.03835  -13.19155
       O    -1.16633    9.12664  -12.34374
      H1    -1.06240   10.15074  -12.21542
       H     0.51964   12.82225  -17.92511
       O     0.95391   12.05588  -17.47198
      H1     0.88689   11.31692  -18.08016
       H     1.36891    9.12903  -12.52330
       O     1.87788    8.53952  -13.05012
      H1     1.35632    7.75719  -13.04328
       H    -4.37634    8.67489  -20.04514
       O    -3.83164    8.59699  -19.21514
      H1    -4.31837    9.07442  -18.51583
       H    -3.72725   10.16961  -16.39318
       O    -2.80193    9.97925  -16.57006
      H1    -2.63534   10.26510  -17.47238

