135
frame 8 | Written by MDAnalysis XYZWriter (release 2.4.3)
       H    -1.97442    8.39375    8.34900
       O    -2.24027    9.20146    8.72891
      H1    -2.59764    9.01105    9.62073
       H    -3.66345    4.37638   12.45404
       O    -3.08795    3.76184   11.98169
      H1    -3.33645    2.91373   12.36366
       H     1.71169    3.44440    9.57125
       O     2.05492    4.17548   10.17468
      H1     2.74419    3.66348   10.63226
       H    -1.36021    3.25029   14.03932
       O    -1.47869    3.30097   15.01043
      H1    -0.62248    3.05600   15.40864
       H    -3.96300    3.08313   17.50799
       O    -3.26993    3.80909   17.45883
      H1    -2.93636    3.74411   16.56314
       H    -1.25367    5.20203    9.82109
       O    -1.51879    4.47364    9.32739
      H1    -2.43653    4.25592    9.44949
       H     3.56766    6.66399   15.09134
       O     4.34676    7.20184   15.33425
      H1     3.92476    8.09765   15.51023
       H     2.85943    5.11267   13.73873
       O     3.67888    4.60743   13.87268
      H1     3.55330    4.04478   14.70448
       H    -0.44205    7.64986   10.28838
       O    -0.53127    6.70504   10.54960
      H1    -0.97792    6.82184   11.40870
       H    -5.16597    8.24819   11.40409
       O    -5.42609    7.48417   10.82702
      H1    -5.55867    7.83494    9.93293
       H     0.52557    1.26295   16.35568
       O     0.61559    2.22187   16.58869
      H1     0.17894    2.39185   17.42906
       H    -0.63671   10.76504    9.13405
       O    -0.45627   11.74079    9.17133
      H1    -0.97087   12.10503    8.46353
       H    -4.68086    6.08843   18.94177
       O    -4.27945    5.28650   19.26501
      H1    -3.99114    4.74799   18.49813
       H    -0.96350   11.00156   12.44640
       O    -1.12200   10.08120   12.38876
      H1    -1.53281    9.97335   13.27577
       H    -3.92633   11.18170   11.18433
       O    -3.83997   10.30556   11.59224
      H1    -2.95722   10.32500   12.00668
       H    -1.55615    5.81146    8.07846
       O    -1.64678    6.51545    7.40366
      H1    -0.91392    6.32539    6.80957
       H     2.88670   10.20128   15.12006
       O     2.65895    9.43313   15.64857
      H1     2.84665    9.73663   16.53425
       H    -7.14743    7.57300   15.70549
       O    -6.56928    7.46598   14.95878
      H1    -5.89168    8.19163   15.15970
       H    -5.02577    4.95032    8.60537
       O    -5.39072    5.62784    8.00235
      H1    -4.91716    5.47989    7.19020
       H    -4.89954    6.03737   12.17470
       O    -4.91952    5.36119   12.81391
      H1    -4.33611    5.78388   13.46179
       H    -2.09476    6.38301   18.09788
       O    -1.53862    6.84330   17.49706
      H1    -0.77450    7.16653   17.99541
       H    -1.73968    5.07110   15.01520
       O    -2.23882    5.94802   14.97898
      H1    -2.02406    6.44659   15.76762
       H     1.35548    8.30369    9.32882
       O     0.88616    8.84666    9.98748
      H1     1.63719    9.09194   10.61480
       H     0.80407    7.10881   16.12401
       O     0.68811    7.63172   15.29722
      H1     1.35125    8.27612   15.34071
       H     1.05842   12.06851   12.24107
       O     0.29123   12.54586   11.90469
      H1     0.09388   12.29054   10.95055
       H    -1.53414    3.44555   18.21271
       O    -0.85085    2.89524   18.64474
      H1    -0.46245    3.43321   19.31005
       H    -4.79828    7.98696    8.32681
       O    -5.53986    8.52315    8.32417
      H1    -6.22246    7.92241    8.01806
       H     0.84293    4.74207   16.99721
       O     1.65493    5.16829   16.99823
      H1     2.33898    4.51388   17.03116
       H    -3.14357   11.21100   15.04536
       O    -2.42073   10.57778   14.97915
      H1    -1.78597   10.85333   15.64208
       H    -8.94386    5.06205   15.27005
       O    -8.20476    4.82938   14.69851
      H1    -7.59630    5.55795   14.66621
       H     1.28486    6.03125   12.41966
       O     1.85413    6.30000   13.09049
      H1     1.36985    6.70311   13.82637
       H    -8.68210    6.45906   11.10126
       O    -8.20039    6.95616   10.44419
      H1    -7.30674    7.05291   10.70395
       H    -2.00727    9.28439   18.67151
       O    -2.78725    9.73913   19.05283
      H1    -3.51260    9.15132   18.91072
       H     2.46011    8.53473   12.16806
       O     2.90347    9.37616   11.99261
      H1     3.73133    9.21966   12.42660
       H     3.07275    5.89266   10.34113
       O     3.70096    6.61501   10.35422
      H1     3.97486    6.77267   11.26104
       H     0.27819   10.39948   16.17331
       O    -0.37801   10.96084   16.65055
      H1    -0.47533   11.78974   16.21641
       H    -2.16266    1.66374   15.28855
       O    -2.43105    0.74387   15.30215
      H1    -1.73852    0.25717   15.71058
       H    -1.84818    6.84872   13.43223
       O    -1.94866    7.26549   12.58212
      H1    -1.74146    8.18202   12.80597
       H     2.48386    3.17311   13.46693
       O     1.71487    2.54675   13.39784
      H1     1.01828    3.04528   12.93049
       H    -4.14663    1.40333   14.08943
       O    -4.70436    1.98287   13.57248
      H1    -5.48767    2.21584   14.16177
       H     2.67192   10.77773   13.14671
       O     2.30620   11.38337   13.78334
      H1     2.88895   12.17557   13.67293
       H     0.13109    3.53397   10.99982
       O    -0.31534    3.52867   11.85453
      H1    -1.27175    3.53176   11.70143
       H    -4.20760    3.67501   10.62636
       O    -4.58607    3.66523    9.75559
      H1    -5.28731    2.98740    9.78937
       H    -4.99974   10.18769   15.56639
       O    -4.64742    9.27289   15.72621
      H1    -3.73045    9.44431   15.52389
       H    -5.01162    8.23218   17.66578
       O    -4.81861    7.99427   18.60793
      H1    -5.57050    8.27597   19.15950

