135
frame 1 | Written by MDAnalysis XYZWriter (release 2.4.3)
       H    -1.38935   -9.95078   -0.50711
       O    -0.81374  -10.68791   -0.70242
      H1    -0.52623  -11.19860    0.03874
       H     0.87421   -8.02587    1.51972
       O     0.73460   -8.12478    0.57092
      H1     1.23076   -7.46918    0.07918
       H    -5.73929   -7.96234   -2.63323
       O    -5.32398   -8.39131   -1.88249
      H1    -5.14897   -7.61155   -1.37547
       H     3.15891   -5.75595   -5.84219
       O     3.41652   -4.87208   -6.23750
      H1     3.61906   -5.16733   -7.11853
       H     4.97350   -2.68678   -2.15522
       O     4.88933   -3.22932   -1.28393
      H1     5.21754   -4.06030   -1.54009
       H    -0.46788   -5.93637   -1.00938
       O     0.40554   -5.93705   -1.43434
      H1     0.23335   -6.72461   -2.00982
       H    -1.20446   -1.79097   -2.93330
       O    -1.40193   -1.15847   -3.66731
      H1    -1.09096   -1.52338   -4.48672
       H     0.64765   -4.86019   -2.98628
       O     0.23095   -4.19639   -3.60088
      H1     0.97305   -3.78374   -4.05130
       H    -3.21990   -5.56688   -5.53382
       O    -4.11938   -5.73084   -5.20623
      H1    -4.49568   -6.49743   -5.72399
       H    -4.85749   -1.85709   -3.71987
       O    -4.24171   -2.54811   -4.01516
      H1    -3.44219   -2.00904   -3.92266
       H    -1.16436   -5.39747   -6.28798
       O    -1.50389   -4.72861   -5.66519
      H1    -0.85351   -4.59936   -4.89679
       H     1.70756   -6.66613    3.29465
       O     1.45184   -7.58334    3.41931
      H1     0.59859   -7.63873    3.89557
       H    -2.06710   -5.25242    0.97972
       O    -2.25083   -5.50444    0.00274
      H1    -1.79013   -4.77865   -0.44917
       H    -1.06620   -3.25611   -6.30109
       O    -1.00271   -2.27201   -6.45089
      H1    -1.97169   -2.06012   -6.67062
       H    -1.22986   -4.62969    4.74001
       O    -0.76856   -4.44056    5.61099
      H1    -1.46994   -4.14427    6.19318
       H     2.55772  -10.51825    1.67854
       O     2.81469  -10.86260    0.78520
      H1     2.32326  -10.26006    0.27707
       H     2.25383   -2.05595   -0.00226
       O     2.29102   -2.82802   -0.63439
      H1     3.23413   -2.87096   -1.04475
       H     0.67964  -12.89408   -3.87358
       O     1.34313  -12.25091   -3.66682
      H1     0.86181  -11.62456   -3.12577
       H    -0.01458   -2.82505   -0.82398
       O    -0.72913   -2.88785   -1.44850
      H1    -0.42425   -3.49051   -2.19684
       H     3.88166   -4.27796    5.57334
       O     4.07806   -4.13020    4.63203
      H1     3.22003   -4.30876    4.11827
       H     2.28832   -4.55806    2.35552
       O     1.75771   -4.62538    3.20661
      H1     0.87995   -4.22522    3.02586
       H     2.16009   -3.28975   -6.27679
       O     1.62473   -2.88479   -5.58944
      H1     0.70914   -2.69603   -5.93989
       H    -1.32057    0.16120   -0.25372
       O    -0.52618    0.46465    0.17417
      H1     0.08059    0.81030   -0.52572
       H     3.57737   -7.97795   -5.04806
       O     2.80707   -7.41492   -4.85292
      H1     2.05905   -7.69615   -5.46247
       H    -2.26630   -7.42148    0.04028
       O    -2.03320   -8.32305    0.29670
      H1    -1.11272   -8.27407    0.43371
       H     2.99952   -6.98763   -1.20462
       O     2.75822   -7.58992   -1.90671
      H1     2.74637   -6.99463   -2.64343
       H    -6.17639   -5.33527   -3.48983
       O    -6.15837   -4.51772   -3.01737
      H1    -5.42886   -3.94603   -3.30991
       H    -1.57272  -11.22747    3.03491
       O    -2.37874  -11.62656    2.66814
      H1    -2.78517  -10.95494    2.11444
       H    -5.76890   -4.59270    2.03910
       O    -4.96090   -4.26669    2.43318
      H1    -4.88788   -3.38537    2.09778
       H    -1.97992   -7.75764   -5.93894
       O    -2.31420   -7.88572   -5.07523
      H1    -2.89549   -7.10824   -4.85982
       H    -3.71537   -8.57950    2.88554
       O    -2.88505   -8.12846    2.83263
      H1    -2.70259   -8.05376    1.84778
       H    -4.12955   -5.55711   -0.57388
       O    -5.01591   -5.92114   -0.70642
      H1    -5.28725   -5.42350   -1.44053
       H     5.26706   -7.03935    0.09819
       O     4.52937   -7.04621    0.72760
      H1     4.29123   -6.13221    0.78235
       H     2.85897   -4.22408    0.34015
       O     3.21915   -4.73442    1.07542
      H1     4.03809   -4.31028    1.41597
       H    -2.36908   -1.35432    2.00911
       O    -1.39462   -1.28617    1.91751
      H1    -1.15398   -0.56976    1.38386
       H     0.00682   -7.65034   -7.21654
       O    -0.85591   -7.09846   -7.33097
      H1    -1.47522   -7.44583   -7.97521
       H    -5.52776   -9.94433    2.05369
       O    -5.35468   -9.03201    2.10298
      H1    -5.43480   -8.71976    3.01293
       H    -4.46715   -1.57107    2.68141
       O    -4.18363   -1.74768    1.68234
      H1    -4.73263   -1.18560    1.09949
       H    -3.43614   -5.11767    2.24306
       O    -2.57608   -5.46572    2.53473
      H1    -2.67564   -6.45548    2.79548
       H     0.03195   -8.35889   -2.93055
       O    -0.78205   -7.87771   -2.85963
      H1    -1.11611   -7.86745   -3.76161
       H     1.86761   -1.25177    2.57159
       O     1.86316   -0.93588    1.63772
      H1     0.98055   -0.61591    1.46589
       H    -4.02662   -9.98733   -2.56127
       O    -3.40609  -10.71088   -2.67285
      H1    -2.51054  -10.52928   -2.28633
       H     0.52760   -9.80649   -1.74497
       O     1.03919   -9.57890   -2.49730
      H1     1.83927   -9.04759   -2.18023
       H    -2.41883   -0.27129   -2.16806
       O    -2.76691    0.33208   -1.54156
      H1    -2.71951    1.27503   -1.88322
       H    -7.67171   -5.83842    1.57123
       O    -7.02689   -5.28701    1.06902
      H1    -6.31164   -5.88079    0.81752

