135
frame 2 | Written by MDAnalysis XYZWriter (release 2.4.3)
       H    -5.73883  -17.57945   11.24295
       O    -5.75934  -16.88867   10.61775
      H1    -5.78536  -17.23177    9.73678
       H   -11.24208  -14.39765   14.79323
       O   -11.54555  -15.27460   14.50515
      H1   -12.33108  -15.01517   13.94149
       H   -11.36285  -10.16965   17.91997
       O   -12.12661  -10.29081   18.41771
      H1   -12.44688   -9.37899   18.33912
       H    -5.96342  -18.08332   13.29599
       O    -5.44412  -18.77041   12.89845
      H1    -4.52792  -18.64892   13.06609
       H    -4.46680  -15.60968   15.02750
       O    -4.35154  -16.28132   14.38311
      H1    -4.49047  -15.90762   13.51311
       H   -13.59036  -11.17205   15.73234
       O   -13.29599  -11.74338   16.43842
      H1   -12.98502  -11.19438   17.20925
       H   -15.40877  -14.69742   19.69951
       O   -15.75837  -14.29759   18.89382
      H1   -14.98451  -13.77617   18.69826
       H   -10.26369   -8.84162   16.31300
       O   -10.17139   -9.79718   16.42647
      H1   -10.39990  -10.05025   15.53638
       H    -8.43214  -14.36783   16.36944
       O    -7.73845  -14.84377   15.86184
      H1    -7.56433  -14.23809   15.15289
       H   -15.39893  -12.34713   16.51323
       O   -16.30334  -12.53465   16.71849
      H1   -16.31333  -13.43789   16.41136
       H    -8.29485  -12.16852   10.07778
       O    -8.10743  -12.38703   11.01377
      H1    -7.67052  -11.54126   11.35828
       H   -12.70041  -17.93462   19.34423
       O   -12.81043  -18.88919   19.04405
      H1   -12.73627  -18.83982   18.01516
       H   -11.44028  -10.18069   10.60223
       O   -10.65515  -10.51729   11.14755
      H1   -10.90742  -11.32373   11.66103
       H    -8.32780  -17.79974   13.88723
       O    -7.63566  -17.29323   13.45833
      H1    -7.93705  -17.35055   12.57161
       H    -8.21007  -13.70103   12.49662
       O    -7.63528  -14.22620   13.07034
      H1    -7.94372  -15.13874   12.97340
       H    -1.21822  -16.49078   14.79303
       O    -1.85164  -17.20667   14.59471
      H1    -2.73628  -16.82030   14.45512
       H    -1.91676  -11.83494   18.56612
       O    -2.80821  -11.47038   18.76511
      H1    -2.82711  -10.55715   18.40057
       H   -11.17921  -14.48897    9.60284
       O   -10.92416  -15.10194   10.29861
      H1   -11.14291  -15.97534    9.98921
       H   -11.93916  -12.34244   15.31082
       O   -11.10342  -12.61424   14.96444
      H1   -11.19701  -12.75597   14.03213
       H    -1.67904  -15.52529   17.54762
       O    -2.46321  -15.85759   17.19728
      H1    -2.20224  -16.26935   16.38836
       H    -8.44267   -8.41098   15.40906
       O    -7.66936   -8.13719   14.89184
      H1    -7.10994   -8.90102   15.08196
       H    -2.52559  -12.14889   12.69178
       O    -2.47622  -12.92495   13.28992
      H1    -3.34399  -13.30256   13.25582
       H    -4.07485  -12.55957   15.77665
       O    -3.60854  -11.71299   15.67275
      H1    -3.11148  -11.84615   14.88167
       H   -11.76223  -17.62786   11.97715
       O   -12.11066  -17.80690   12.87563
      H1   -11.76669  -17.01779   13.34095
       H    -2.17908  -17.23832   20.16327
       O    -2.51636  -17.68229   19.31685
      H1    -2.54250  -17.00674   18.68832
       H    -6.42818   -8.79112   18.19093
       O    -7.20224   -9.10874   18.75973
      H1    -7.59323   -9.87504   18.40033
       H    -8.37985  -16.63383   18.50129
       O    -7.71829  -16.96074   17.82927
      H1    -7.60274  -16.30822   17.19249
       H    -4.75821  -14.29835   11.54177
       O    -4.92980  -14.00412   12.45770
      H1    -5.93749  -14.16115   12.48821
       H   -14.21401  -15.26194   12.68965
       O   -14.32970  -14.70185   13.48034
      H1   -15.16292  -14.91899   13.79018
       H    -7.62711  -18.75160   10.82526
       O    -8.44320  -18.25316   10.53695
      H1    -7.99525  -17.56486   10.02322
       H    -6.27844  -18.90669   18.36642
       O    -6.52372  -19.86020   18.37893
      H1    -5.90503  -20.14641   19.10032
       H    -8.79520  -20.12709   16.20249
       O    -8.95917  -19.22928   16.34513
      H1    -8.39060  -18.98085   17.05820
       H    -6.22837  -10.55728   13.13001
       O    -6.42344  -10.64468   12.19589
      H1    -6.59629   -9.74256   11.86412
       H   -10.10527  -12.92136   16.45792
       O    -9.79308  -13.36809   17.28834
      H1   -10.64010  -13.57080   17.80520
       H   -10.82761  -16.33239   15.90575
       O   -10.82604  -16.87958   16.67958
      H1    -9.92609  -17.24307   16.84870
       H    -5.23915  -10.91594   15.46895
       O    -6.18302  -10.73687   15.23989
      H1    -6.64749  -11.12444   16.00121
       H   -11.20817  -13.95008   11.74006
       O   -11.55280  -13.16769   12.16534
      H1   -12.48294  -13.48887   12.37088
       H   -13.66304  -18.04648   16.10774
       O   -13.00875  -18.75822   16.35460
      H1   -12.14784  -18.27437   16.42585
       H    -9.23420  -14.91080    9.86566
       O    -8.33728  -15.19170    9.55608
      H1    -7.75705  -15.08581   10.27791
       H    -5.21174  -14.30926   19.73456
       O    -5.31030  -13.54160   19.13122
      H1    -4.43039  -13.14568   19.15151
       H    -9.42703   -8.94617   13.55510
       O   -10.29285   -9.42545   13.58970
      H1   -10.38595   -9.76153   12.66231
       H    -4.89173  -13.88678   17.41642
       O    -5.15250  -13.78582   16.48588
      H1    -6.04974  -14.08358   16.50043
       H    -5.70335  -12.15449   10.66340
       O    -5.14968  -11.92439    9.93044
      H1    -5.31777  -12.58177    9.29503
       H    -8.24783  -12.11528   17.64739
       O    -7.43115  -11.66608   17.63155
      H1    -6.82365  -12.37689   17.85165
       H   -14.14346  -10.96409   13.58126
       O   -13.91862  -10.29200   14.22041
      H1   -13.03126  -10.00734   14.01731

