135
frame 4 | Written by MDAnalysis XYZWriter (release 2.4.3)
       H     2.02410   12.19977  -13.27684
       O     1.80790   12.08789  -12.32627
      H1     0.81868   12.16554  -12.35588
       H    -1.34879    6.25141  -13.27907
       O    -1.20826    5.24364  -13.30457
      H1    -1.46972    4.96406  -12.41595
       H     2.90124    5.43468  -19.93451
       O     2.16842    5.47187  -19.29501
      H1     2.05940    6.34426  -18.93998
       H    -6.06179    7.35460  -17.88114
       O    -5.68068    8.16900  -18.26286
      H1    -5.10382    8.58500  -17.59636
       H    -2.70758    6.22720  -17.68031
       O    -2.75753    6.63234  -16.77824
      H1    -3.10162    7.52297  -16.75918
       H     0.80707    9.47967  -18.73841
       O     0.20144   10.16763  -19.02638
      H1     0.19724   10.24486  -19.99517
       H     2.25469    2.72604  -14.34204
       O     1.44957    3.17558  -14.04412
      H1     0.85183    2.42569  -13.85772
       H    -1.84160    9.75971  -14.94545
       O    -1.70148   10.56437  -14.50049
      H1    -2.62371   10.83459  -14.31122
       H     3.40273    9.23177  -11.65268
       O     4.31990    9.12971  -11.51931
      H1     4.68057   10.07469  -11.51803
       H     0.40882    3.14781  -17.82690
       O     1.08983    3.09436  -18.58717
      H1     1.51587    3.93179  -18.75546
       H     8.52152    8.18568  -16.93128
       O     9.42787    8.51961  -16.89516
      H1     9.54878    9.17938  -17.58699
       H     4.62171    9.21963  -16.33504
       O     4.73153    8.52355  -16.99797
      H1     4.78776    9.06287  -17.80341
       H    -3.90128    2.40857  -20.10892
       O    -3.15395    2.03588  -19.62373
      H1    -3.18638    2.60635  -18.85986
       H     3.40805   13.55952  -18.61393
       O     4.10633   14.22857  -18.53658
      H1     3.89019   14.88231  -19.20982
       H     1.67646    5.70468   -9.98307
       O     1.00869    5.39803  -10.60421
      H1     1.43797    5.51519  -11.49343
       H     2.56138    7.99562  -17.42405
       O     1.65510    7.76591  -17.77756
      H1     1.04250    7.75085  -17.07217
       H     4.75171    4.63190  -12.55865
       O     4.98876    4.19524  -11.71743
      H1     4.19871    3.95398  -11.19763
       H     5.78754   13.59082  -18.77690
       O     6.34627   12.99343  -19.26371
      H1     7.22105   13.00307  -18.84239
       H     2.66378    5.64394  -13.44428
       O     1.77192    5.76879  -13.10268
      H1     1.18504    5.12295  -13.55064
       H     7.90419    5.96316  -19.36279
       O     8.62381    5.53572  -18.81597
      H1     9.46779    5.94352  -18.95574
       H    -1.60363   13.45345  -18.48121
       O    -0.67921   13.64545  -18.21553
      H1    -0.84050   13.89019  -17.26455
       H    -1.42049    7.58541  -16.04173
       O    -0.90974    8.32567  -15.75178
      H1    -0.50094    8.11329  -14.89622
       H     0.63773    9.82790  -14.82999
       O     1.49823    9.48143  -14.71632
      H1     1.48710    9.43044  -13.72984
       H     2.20775   12.43342  -16.35324
       O     2.35275   12.51142  -15.41656
      H1     3.04647   11.85623  -15.32882
       H     7.60054    5.04456  -17.44596
       O     7.06406    4.52286  -16.82225
      H1     6.78564    5.18760  -16.16358
       H    -1.33977    3.23719  -16.36284
       O    -0.46618    3.64637  -16.45342
      H1    -0.03099    3.47932  -15.60474
       H    -2.95621    5.37123  -15.49107
       O    -3.26630    4.61448  -14.98506
      H1    -2.80885    4.65746  -14.11752
       H    -3.45123   14.27399  -16.52297
       O    -2.87473   13.51369  -16.68010
      H1    -3.39173   12.82178  -17.04766
       H     4.57812   11.12106  -18.55914
       O     4.48305   10.25635  -18.97185
      H1     5.30751   10.24715  -19.54807
       H    -2.81499    2.25399  -16.88636
       O    -3.11256    3.12666  -17.10044
      H1    -3.20031    3.60021  -16.28634
       H    -1.62388   10.28035  -18.95456
       O    -2.53429   10.31287  -19.27874
      H1    -2.76043    9.52444  -19.71564
       H     5.00547    4.27187  -17.02156
       O     4.11290    4.17879  -16.60702
      H1     3.49101    4.57128  -17.22764
       H    -2.13432    5.11531  -19.22489
       O    -1.28757    5.50771  -19.03599
      H1    -0.82145    4.81803  -18.59586
       H     0.57231   12.68419  -15.35973
       O    -0.30307   12.98101  -15.11434
      H1    -0.86570   12.22099  -15.39179
       H     6.20275   10.90773  -15.49870
       O     5.25779   10.76223  -15.26588
      H1     5.14366   10.78292  -14.35543
       H    -3.41881    7.34612  -13.46464
       O    -4.35665    7.48926  -13.42391
      H1    -4.99483    6.89232  -13.86604
       H     6.10670    7.43593  -15.87569
       O     6.50657    6.72499  -15.32869
      H1     6.92588    7.17690  -14.61762
       H     6.94107    6.93838  -11.57907
       O     6.60435    7.61239  -12.17056
      H1     5.64608    7.61873  -12.09599
       H     4.15317    0.81529  -15.13515
       O     3.51481    1.49038  -15.19600
      H1     3.84583    2.19541  -15.75926
       H    -1.06417    8.70812  -12.61960
       O    -1.11952    7.77818  -12.90320
      H1    -0.23505    7.52502  -12.80178
       H     0.98638   12.95314  -17.99093
       O     1.82529   12.51746  -18.15523
      H1     1.59685   11.67029  -18.50688
       H     1.49136   10.12482  -11.92124
       O     1.54311    9.18754  -11.79765
      H1     0.87391    9.00501  -11.03924
       H     8.88288   10.85113  -15.13957
       O     8.12892   10.92472  -15.74415
      H1     8.32645   10.27713  -16.44297
       H     3.98812    4.75790  -14.87504
       O     4.26139    5.28754  -14.12530
      H1     4.80906    6.00942  -14.48487
       H    -3.40783    9.92476  -17.45933
       O    -3.75929    9.32676  -16.74832
      H1    -4.09517    9.89383  -16.03769

