135
frame 9 | Written by MDAnalysis XYZWriter (release 2.4.3)
       H    -6.48891  -16.30484   10.14286
       O    -5.65399  -16.13474    9.62630
      H1    -5.21497  -16.99208    9.59339
       H    -6.23321  -16.69669   13.06646
       O    -6.19450  -15.73498   12.88668
      H1    -5.28079  -15.66490   12.58001
       H    -0.74004  -17.18577    3.09380
       O     0.19679  -17.22912    3.23583
      H1     0.61608  -16.47814    2.85087
       H    -6.29973  -15.27444    6.35949
       O    -5.76642  -15.78455    5.65858
      H1    -6.31727  -16.25634    5.08999
       H   -10.73236  -18.16688    6.38339
       O    -9.83085  -18.28165    6.05467
      H1    -9.64960  -19.24643    6.09740
       H    -9.10485  -18.67254    2.70484
       O    -8.72827  -19.39344    3.20136
      H1    -9.20101  -19.42534    4.07322
       H    -8.53371  -11.85756    6.18855
       O    -9.06604  -11.68961    5.37226
      H1    -9.85624  -12.25004    5.47111
       H    -6.18655  -18.46061   14.30041
       O    -6.83126  -18.14255   13.66087
      H1    -7.29363  -18.87880   13.17099
       H   -10.20935  -14.65981    6.98060
       O    -9.86444  -15.46555    7.28431
      H1   -10.45333  -15.74799    7.97663
       H   -13.45505  -18.84887    6.55814
       O   -12.76514  -18.19234    6.40884
      H1   -13.12197  -17.62068    5.77252
       H    -2.05973  -16.29428    8.97292
       O    -2.33261  -15.39562    8.65689
      H1    -2.46840  -15.44534    7.71345
       H    -4.35123  -15.46854   10.63402
       O    -3.97287  -15.26858   11.53110
      H1    -3.13961  -15.71892   11.47673
       H   -11.74252  -17.10381   11.47588
       O   -11.55802  -17.81511   12.06487
      H1   -11.54827  -17.36729   12.90455
       H   -11.07695  -17.13752    1.91646
       O   -10.10897  -17.21527    2.10591
      H1    -9.72972  -16.73080    1.36459
       H   -10.52215  -16.07127    4.24028
       O   -11.13720  -15.63078    4.83075
      H1   -10.67102  -15.80941    5.66965
       H    -1.47106  -18.02958   10.08358
       O    -2.17011  -17.61467   10.65794
      H1    -2.18556  -18.28555   11.28618
       H    -8.34263  -16.04196   15.44540
       O    -8.91214  -16.65894   14.91820
      H1    -8.27515  -17.32385   14.52172
       H    -3.98482  -12.53777    9.72605
       O    -4.40465  -12.74083   10.59235
      H1    -4.25393  -13.67758   10.84107
       H    -7.38405  -17.98569    3.51371
       O    -6.56784  -17.44124    3.46484
      H1    -6.58852  -16.91299    2.67924
       H    -4.08054  -12.74175    1.43523
       O    -3.78724  -13.27850    2.20450
      H1    -4.59352  -13.50036    2.71320
       H    -8.84033  -16.08196   10.14659
       O    -8.94351  -17.06078   10.14620
      H1    -8.58888  -17.30228    9.22174
       H   -13.52235  -17.47251    8.29469
       O   -13.91157  -17.03439    9.11150
      H1   -14.48988  -17.72959    9.46527
       H    -2.48091  -17.71566    4.40265
       O    -2.36663  -18.19530    5.18825
      H1    -1.52075  -17.78222    5.56288
       H    -5.60815  -19.99138    6.54890
       O    -6.53638  -20.12654    6.83609
      H1    -6.81140  -19.31311    7.22788
       H    -4.31334  -18.89704    8.51990
       O    -4.42324  -18.62491    9.47676
      H1    -3.51785  -18.33344    9.66002
       H    -4.09350  -12.78630    7.36391
       O    -3.98859  -13.45847    6.66532
      H1    -4.78383  -14.04031    6.75369
       H    -6.86606  -14.18363    2.77601
       O    -6.16608  -14.02093    3.40133
      H1    -6.03555  -14.72774    4.01735
       H    -8.23974  -17.46715    7.17338
       O    -7.60181  -17.59942    7.90094
      H1    -6.97981  -16.84921    8.03790
       H    -2.39936  -16.11158    1.95829
       O    -2.62767  -16.46851    2.84182
      H1    -2.88058  -15.67714    3.37238
       H    -0.60039  -14.78247    7.93006
       O     0.02076  -14.78180    7.21814
      H1    -0.17634  -13.95436    6.76696
       H   -11.07882  -14.57447    9.79379
       O   -11.15717  -13.59776    9.97368
      H1   -11.44097  -13.59386   10.87220
       H    -3.91266  -17.97671    2.20608
       O    -4.38851  -18.75076    2.45527
      H1    -5.12836  -18.48425    2.99916
       H    -9.31906  -13.73187   10.65648
       O    -8.50526  -14.19371   10.75323
      H1    -8.07911  -14.03106   11.57963
       H    -0.38271  -18.29191    7.68228
       O    -0.78312  -18.61994    8.53188
      H1    -1.13940  -19.52899    8.29885
       H    -6.43515  -16.82103    0.52654
       O    -6.37807  -16.14895    1.25738
      H1    -7.07792  -15.51029    0.99683
       H    -8.10242  -19.83413   11.10833
       O    -8.75122  -19.37877   11.63982
      H1    -8.87530  -18.46275   11.25638
       H    -8.17137  -14.71443    7.74088
       O    -7.23600  -14.47456    7.70088
      H1    -6.87161  -14.54084    8.61050
       H   -12.07935  -12.95525    6.71918
       O   -11.38643  -13.00773    6.01678
      H1   -11.69383  -13.61241    5.33267
       H    -0.04545  -16.46215    6.46479
       O    -0.04754  -17.27964    5.91710
      H1     0.08114  -17.04984    4.94329
       H    -2.93462  -13.80363    3.45096
       O    -2.62332  -14.19049    4.31001
      H1    -3.10231  -13.79121    5.08297
       H    -6.49365  -18.93703   -0.23747
       O    -6.87069  -18.11684   -0.58062
      H1    -6.50788  -18.00774   -1.48422
       H    -5.12914  -12.28635    5.64394
       O    -5.63405  -11.92217    4.88878
      H1    -5.81480  -12.69351    4.28080
       H   -10.65597  -16.89242    9.60304
       O   -11.39605  -16.29474    9.42953
      H1   -12.24322  -16.75160    9.39598
       H    -7.59411  -12.64853    7.97747
       O    -7.60942  -11.69455    7.78701
      H1    -6.73193  -11.53240    7.41232
       H    -3.27486  -19.05713    6.46518
       O    -3.78349  -19.64793    6.99674
      H1    -3.09574  -20.15278    7.46079

