135
frame 0 | Written by MDAnalysis XYZWriter (release 2.4.3)
       H     8.58106   -3.23862   16.69623
       O     8.66635   -2.79499   17.55066
      H1     8.80089   -3.58616   18.11655
       H     5.43775    3.10416    9.83739
       O     4.99597    3.09760   10.71470
      H1     4.96550    2.18273   10.98221
       H    -1.65765   -0.78452   12.64407
       O    -2.39047   -0.77058   11.99468
      H1    -2.94201   -0.01047   12.15683
       H     3.23599   -2.90999   12.08350
       O     3.46461   -3.46203   12.86255
      H1     2.60153   -3.87455   13.10779
       H     7.02370   -3.49343   11.47353
       O     6.52151   -3.02505   10.81033
      H1     6.28174   -3.69998   10.16312
       H     4.74595   -4.93382    8.84612
       O     5.41730   -5.08202    9.53148
      H1     4.94731   -5.25454   10.34736
       H    -0.41895   -1.13328   17.86286
       O     0.46306   -1.02273   18.21892
      H1     1.07288   -1.48657   17.60977
       H     3.68225   -4.18257    7.43354
       O     3.75589   -5.12398    7.30171
      H1     2.83334   -5.44982    7.13278
       H    -0.00035   -6.95881   14.16241
       O     0.49545   -6.20510   14.45421
      H1     1.38225   -6.50494   14.13010
       H     0.26249   -0.73342   13.96960
       O     0.40834    0.21791   13.85257
      H1     0.34435    0.43426   14.81782
       H     3.92051   -3.62836   16.06121
       O     4.64842   -3.23642   15.56056
      H1     4.22424   -3.31168   14.69187
       H     1.38212   -2.58859    7.89156
       O     0.60729   -2.99873    8.24979
      H1    -0.03048   -2.95819    7.54345
       H     6.67664   -5.62875    8.35848
       O     7.53070   -5.74019    7.92105
      H1     7.40645   -6.32335    7.17316
       H     3.44402   -0.76238    9.96073
       O     3.87351   -1.58226   10.29133
      H1     4.77006   -1.40660   10.53454
       H    -0.84714   -2.95568   13.07179
       O    -0.94879   -2.18532   13.70847
      H1    -1.77066   -2.38137   14.14303
       H     6.36149   -6.35762   14.03395
       O     6.75518   -6.30489   13.19799
      H1     7.53758   -6.92149   13.19709
       H    -2.47009   -6.02018    9.57934
       O    -1.99946   -5.35612   10.14784
      H1    -2.67024   -4.70663   10.35062
       H     3.29543    0.08551   15.20372
       O     2.75476   -0.04646   16.00127
      H1     3.22149    0.22276   16.78020
       H     3.03856   -7.27086   10.50038
       O     2.59925   -7.32005    9.62369
      H1     1.98617   -6.53210    9.47638
       H     1.30436    0.88404   16.23801
       O     0.34233    1.13291   16.31898
      H1     0.10089    0.46265   16.97911
       H    -0.78920   -1.09524   10.76987
       O     0.07039   -0.92441   10.28215
      H1     0.28017   -1.69937    9.73875
       H     7.83504    1.98202   12.99090
       O     8.24959    1.15619   12.66320
      H1     7.48656    0.66371   12.32696
       H     8.54444   -1.62880    8.63101
       O     7.66528   -1.37863    8.98732
      H1     7.41450   -2.20612    9.45980
       H     7.59159   -4.87663   12.61886
       O     8.21714   -4.10524   12.61820
      H1     8.31878   -3.85255   13.52560
       H     4.24597   -5.04382   12.10664
       O     4.47311   -5.94204   11.82304
      H1     5.35318   -6.13401   12.19798
       H     3.29275   -7.02254   12.79735
       O     2.81953   -7.33179   13.59204
      H1     3.20418   -8.21599   13.69665
       H     5.12467   -8.55978   17.49195
       O     4.37726   -8.15353   17.04085
      H1     3.69515   -8.08162   17.69164
       H     3.57066   -2.08002    6.95906
       O     3.85542   -2.54059    7.72047
      H1     3.80752   -2.02555    8.53055
       H     0.67946   -4.45229   11.57318
       O     0.65266   -4.15393   12.48790
      H1     0.61562   -4.93870   13.09777
       H     6.20676   -1.18170   11.44822
       O     6.02213   -0.29414   11.69760
      H1     5.19223   -0.14870   12.23174
       H    -1.16402   -4.18930   16.79865
       O    -0.48584   -4.78333   17.17314
      H1    -0.23928   -5.23514   16.34154
       H     1.58232    0.44129    8.67163
       O     2.52155    0.16787    8.66420
      H1     3.00637    0.78493    8.04886
       H     0.59718   -4.22936   18.27321
       O     0.96839   -3.70720   19.03694
      H1     0.76735   -2.82698   18.70910
       H     1.54370    0.80871   12.41626
       O     2.23747    1.31020   11.96823
      H1     2.26750    0.88172   11.14571
       H     0.20356   -5.63725   10.23873
       O     0.92867   -5.09552    9.98492
      H1     0.68729   -4.53524    9.28605
       H     1.32535   -7.33792    6.89080
       O     2.24832   -7.45961    6.96968
      H1     2.48307   -7.36759    7.93461
       H     7.00227   -1.33912   16.73618
       O     6.08211   -1.09545   16.96032
      H1     5.59900   -1.51538   16.27288
       H     2.67583   -4.19324   17.90652
       O     3.54549   -4.57198   17.96833
      H1     4.12865   -3.91202   18.33474
       H     5.00665   -6.64631   16.03615
       O     5.71240   -6.11200   15.66241
      H1     5.37906   -5.17022   15.63593
       H     4.58052    1.46161   14.11782
       O     4.22554    0.63292   13.66334
      H1     3.46639    0.83807   13.07218
       H     6.93960   -6.79444   16.94224
       O     7.74973   -7.08811   17.38432
      H1     7.41287   -7.73408   18.03378
       H    10.13851   -4.84902    9.99997
       O    10.42705   -4.47341   10.80762
      H1     9.64173   -4.26842   11.43229
       H     0.56446   -2.49939   14.62183
       O     1.25799   -2.87099   15.18966
      H1     1.99360   -2.25568   15.09998
       H    10.22051   -3.42461   14.39661
       O     9.41925   -3.16085   14.91031
      H1     9.37523   -2.21572   14.84170
       H     5.19873   -2.71804   19.42516
       O     5.74503   -3.25093   18.88020
      H1     5.99547   -2.60347   18.20220

