135
frame 0 | Written by MDAnalysis XYZWriter (release 2.4.3)
       H   -10.43805   10.94596    1.83033
       O   -11.09235   10.81828    2.55329
      H1   -11.86747   11.20695    2.14410
       H    -2.68699   13.78505    3.86905
       O    -2.80705   14.69596    3.61132
      H1    -3.43905   14.68461    2.87743
       H   -10.99498    9.60724   -2.69510
       O   -10.20762    9.23983   -2.18714
      H1   -10.60561    8.46917   -1.69553
       H   -12.96676    9.93261   -2.16467
       O   -12.60648    9.85972   -2.99876
      H1   -12.75859   10.73384   -3.43173
       H    -3.77048    9.94335    0.07813
       O    -3.54129    9.08338   -0.32193
      H1    -4.15102    8.87777   -1.09810
       H    -3.20014    9.38367   -5.18621
       O    -3.56304    9.75719   -4.42840
      H1    -4.05014    9.08477   -3.88942
       H    -7.03769   12.83097   -4.60565
       O    -7.91353   13.21563   -4.73193
      H1    -8.24074   12.99467   -5.57706
       H    -9.08001   10.89252   -0.19276
       O   -10.06797   10.85452   -0.07805
      H1   -10.37624   10.13605   -0.66552
       H    -6.83195    5.65478    1.81681
       O    -6.92720    5.87543    0.86463
      H1    -7.57200    5.25436    0.49956
       H    -5.76393    4.88489   -3.27808
       O    -6.01730    5.37442   -2.46202
      H1    -5.47495    5.07695   -1.75168
       H    -3.42132    7.34576    0.97628
       O    -3.75075    6.62443    1.51238
      H1    -3.15632    6.71180    2.26957
       H    -7.05117    8.96911    2.10127
       O    -6.34237    8.75522    1.39159
      H1    -6.50808    7.82854    1.18423
       H    -7.62412   13.53888    1.93407
       O    -6.87193   13.22178    1.37951
      H1    -7.27563   12.44149    0.90942
       H   -13.51557   12.44088    0.83240
       O   -13.38910   11.74709    1.47388
      H1   -13.69306   11.00792    1.01546
       H    -4.37315    9.10139    2.62533
       O    -4.14268    9.62953    3.38598
      H1    -4.57396   10.49992    3.26191
       H    -2.40763    9.83560   -1.54079
       O    -1.99506   10.35738   -2.23145
      H1    -2.47142   10.18509   -3.04415
       H    -5.96938    8.08163    5.84587
       O    -6.04938    8.50225    4.97362
      H1    -5.17588    8.85262    4.62963
       H    -7.99724   15.17298   -1.82885
       O    -7.73951   15.68339   -1.06318
      H1    -7.42774   14.97689   -0.52342
       H    -4.15783   11.51269   -4.67797
       O    -4.45042   12.42366   -4.67366
      H1    -4.63411   12.69398   -5.59965
       H   -10.91693   12.39241   -0.21075
       O   -11.00853   13.31531   -0.44872
      H1   -10.60534   13.33225   -1.33824
       H   -13.29190    9.35511    0.22067
       O   -13.67718    9.87131   -0.47990
      H1   -14.54434    9.50428   -0.42190
       H   -11.50966    8.84999    1.82068
       O   -12.20106    8.31723    1.38658
      H1   -11.75694    7.96526    0.65106
       H    -5.50493   14.56360    1.56169
       O    -4.76856   15.13433    1.62447
      H1    -5.01273   15.87992    2.22963
       H    -5.20612   12.52848    4.17644
       O    -5.05924   12.11988    3.27049
      H1    -5.58750   12.62704    2.63590
       H    -6.78263   11.46203   -0.80858
       O    -7.40100   10.92358   -0.25147
      H1    -6.84379   10.15411    0.06983
       H    -9.60316   13.44472    3.54678
       O    -9.08731   13.90845    2.86862
      H1    -9.90705   14.11129    2.41667
       H    -0.98234    8.69441    3.51169
       O    -1.36238    9.26707    2.83025
      H1    -2.28553    9.24060    3.15922
       H   -10.90440   11.94680    4.11518
       O   -10.62171   12.60050    4.77106
      H1   -10.17008   12.01944    5.36902
       H    -3.98276   11.98895    1.42534
       O    -3.91537   11.78972    0.48717
      H1    -3.21578   12.44767    0.32785
       H    -7.57024    9.01715    4.16294
       O    -8.36725    8.75506    3.62892
      H1    -8.53105    7.85717    4.04515
       H    -5.38036   12.49395   -2.47709
       O    -5.71718   12.70919   -1.55731
      H1    -4.97674   12.46597   -0.95533
       H    -4.88557   16.75845   -1.97674
       O    -5.70676   16.95196   -2.46014
      H1    -6.29461   16.49529   -1.84122
       H   -12.57467   13.60541   -0.66653
       O   -13.53514   13.65763   -0.81081
      H1   -13.80921   14.58655   -0.71370
       H    -8.34813   17.10215   -0.10645
       O    -8.36198   17.35183    0.86772
      H1    -8.63222   18.28807    0.86175
       H   -12.27822    9.65176    5.09504
       O   -11.51694    9.05315    4.89906
      H1   -11.11519    9.33459    4.07030
       H    -4.89547    5.10610    0.36158
       O    -4.53478    4.38845   -0.18131
      H1    -3.56911    4.51380   -0.24659
       H    -3.05223   13.41399   -4.06835
       O    -2.55911   14.20250   -4.18470
      H1    -1.98367   14.28870   -3.44200
       H    -5.87413    8.38012   -2.31271
       O    -4.95333    8.19991   -2.55208
      H1    -4.88304    7.25398   -2.66671
       H    -4.86749    6.06118    2.79382
       O    -5.59816    5.78410    3.43386
      H1    -5.73278    6.55631    3.98499
       H   -11.40292    6.38243   -1.22111
       O   -10.83134    7.08431   -0.83296
      H1   -10.00204    6.60182   -0.44055
       H    -8.78892    6.43417   -3.43134
       O    -8.98278    7.25007   -4.00152
      H1    -9.40912    7.81806   -3.30921
       H    -7.44275    7.75253   -4.75792
       O    -6.55670    7.48832   -5.09738
      H1    -6.44512    8.21619   -5.69881
       H   -10.44699   14.50706   -3.48702
       O    -9.75046   13.90740   -3.08916
      H1    -9.26906   13.59936   -3.86658
       H   -10.71163   14.85067    0.47453
       O   -10.60452   15.67297    0.99609
      H1    -9.72324   16.06357    0.92881
       H   -10.21669    4.51057    0.49630
       O    -9.41729    4.89970    0.00790
      H1    -9.48724    4.84382   -0.95439

