135
frame 10 | Written by MDAnalysis XYZWriter (release 2.4.3)
       H    13.22766    5.51054   16.54482
       O    13.14743    4.63296   16.86136
      H1    12.65169    4.12822   16.23279
       H    10.58840    5.45070   17.87506
       O    11.07127    4.86597   18.49596
      H1    11.89825    4.70678   18.04752
       H     8.52632   -3.62147   17.28985
       O     9.20124   -3.51958   16.56805
      H1     9.82929   -2.82978   16.77399
       H     7.94444   -7.10347   19.70400
       O     8.70474   -7.73684   19.77665
      H1     8.54613   -8.41380   19.10115
       H     9.75996    3.62383   18.27480
       O     8.94715    3.09780   18.41265
      H1     9.24207    2.49470   19.11202
       H     8.49798    2.34138   16.88914
       O     8.43202    2.00534   15.92819
      H1     7.50022    2.23210   15.66012
       H    16.05704   -2.13930   17.14054
       O    16.18588   -1.28317   16.69130
      H1    15.34571   -0.81485   16.65919
       H    16.64944    1.58426   15.42026
       O    17.17485    0.81909   15.17972
      H1    17.19937    0.25166   15.98140
       H     2.22806   -1.24648   19.15606
       O     3.02700   -1.61326   18.72572
      H1     3.08867   -2.55903   18.95662
       H    10.34173    3.02561   15.65620
       O    11.26136    2.88301   15.56600
      H1    11.51370    3.30173   14.75837
       H     9.82002   -1.40040   19.04905
       O     9.84954   -1.77397   19.94540
      H1    10.65209   -2.33821   19.97818
       H    11.41958   -7.22769   14.21908
       O    11.80260   -8.14082   13.94804
      H1    11.00089   -8.58321   13.61606
       H     4.79509   -4.34003   16.24699
       O     5.02783   -3.64655   15.53311
      H1     6.00496   -3.76498   15.30447
       H    14.86621    1.21837   13.27055
       O    14.16517    1.31335   13.94892
      H1    13.45135    0.81631   13.55308
       H     5.22714   -0.71316   17.11523
       O     5.41578   -1.05119   16.24325
      H1     5.19805   -2.00700   16.03428
       H    13.79806   -7.89576   16.55507
       O    14.23549   -7.59478   15.73895
      H1    13.55145   -7.65035   15.09658
       H    12.82412   -4.00741   18.36611
       O    13.40255   -4.66154   17.87110
      H1    14.27280   -4.33745   18.12051
       H    16.47842   -4.21568   18.77311
       O    15.76531   -3.62097   18.50410
      H1    15.91515   -2.83629   19.01517
       H    10.20063   -5.63602   15.65025
       O    10.88051   -5.63317   14.92825
      H1    11.69798   -5.17578   15.30850
       H    10.16859    0.18345   12.64210
       O    10.36467    0.14414   11.69476
      H1     9.62006   -0.19813   11.21611
       H    13.40225   -9.27265   18.06436
       O    13.06229   -8.38586   17.98269
      H1    12.15232   -8.43957   17.92782
       H     6.37555    1.40499   14.30463
       O     6.09304    2.31253   14.41796
      H1     5.24683    2.33921   14.88331
       H     3.54291    3.04910   19.55201
       O     4.12663    2.88577   18.81276
      H1     4.69351    2.15677   19.11899
       H     7.40237   -4.05720   19.14418
       O     7.09103   -4.07576   18.24189
      H1     6.65712   -3.22923   18.11768
       H    15.49812    2.38222   19.89683
       O    16.06443    2.48435   19.14487
      H1    15.54757    2.57646   18.31108
       H    18.27671   -0.04490   19.70977
       O    17.85754   -0.86092   19.34700
      H1    17.59738   -0.70652   18.43216
       H    10.51523   -0.92092   16.91505
       O    11.32949   -1.44414   16.99400
      H1    11.63953   -1.62173   16.11689
       H     7.52773   -4.87644   14.23191
       O     7.67262   -3.90210   14.25535
      H1     8.20029   -3.81389   15.06153
       H     3.67542   -5.98376   16.46198
       O     4.18721   -5.71844   17.23990
      H1     5.01328   -6.16043   17.02475
       H    12.77875    0.84770   18.14662
       O    12.70701    1.13076   19.07493
      H1    13.06377    0.34079   19.47196
       H     7.10811   -0.82969   13.43493
       O     7.30780   -0.30596   14.18824
      H1     6.92158   -0.81195   14.87794
       H     9.87779   -6.27029   18.43367
       O    10.42484   -6.39719   17.62458
      H1    11.28320   -6.54315   18.03798
       H    12.50603   -3.28701   15.15568
       O    13.16719   -4.04073   15.36024
      H1    13.15447   -4.14747   16.33336
       H     7.55366   -8.18472   17.37791
       O     7.69709   -9.08430   17.70919
      H1     8.59106   -9.21745   17.38547
       H     8.81645    0.11545   18.42350
       O     8.85823   -0.33775   17.60158
      H1     8.70679    0.38414   16.93627
       H     4.54702   -0.57875   18.84384
       O     5.23995    0.05138   18.66315
      H1     5.76896    0.06723   19.45593
       H    14.29809    2.16702   16.69199
       O    14.98817    2.80191   16.76119
      H1    14.49294    3.61530   16.95781
       H    12.68576   -0.17183   16.37419
       O    13.50976    0.42393   16.37531
      H1    13.78971    0.73596   15.46628
       H    14.46328   -3.90778   14.35942
       O    15.11762   -3.71545   13.63357
      H1    15.50023   -2.84327   13.71682
       H     8.94079    0.14477   14.34953
       O     9.88440    0.30959   14.52431
      H1     9.83215    1.19037   14.90968
       H     6.96901   -6.53563   15.81583
       O     6.76149   -6.63613   16.73665
      H1     7.02314   -5.81888   17.17864
       H    18.20142   -6.23433   18.72952
       O    17.61228   -5.58228   18.33351
      H1    17.28471   -5.98428   17.48532
       H    10.13649   -4.83186   12.17000
       O    11.07544   -5.03500   12.35646
      H1    11.07890   -5.19921   13.31305
       H     3.15351   -5.05369   18.93267
       O     3.09104   -4.36521   19.60950
      H1     2.27786   -4.45851   20.14002
       H    10.87971   -1.45468   14.40184
       O    11.48563   -2.16941   14.24197
      H1    11.91054   -1.83709   13.41636

