135
frame 4 | Written by MDAnalysis XYZWriter (release 2.4.3)
       H    -5.17148  -17.02120   10.16022
       O    -5.18608  -16.48930    9.38533
      H1    -4.63615  -16.98578    8.80351
       H    -9.30729  -18.95618    1.56198
       O    -9.46999  -19.64370    0.88381
      H1   -10.37420  -19.93897    1.14589
       H   -16.17509  -19.20909    6.70353
       O   -16.77899  -18.48111    6.96202
      H1   -17.05924  -18.86530    7.77153
       H    -6.35373  -16.80590    5.68082
       O    -5.49441  -16.46873    5.24038
      H1    -5.91310  -15.63875    4.80963
       H   -10.72445  -18.72503    5.38871
       O   -10.01763  -18.25466    4.91679
      H1    -9.33997  -18.94981    4.84980
       H   -10.14145  -16.99202    1.96904
       O    -9.40921  -17.44986    2.42752
      H1    -9.75056  -17.58705    3.34119
       H    -6.99258  -12.15876    6.02535
       O    -6.94204  -11.86315    5.13066
      H1    -7.74348  -11.98517    4.58231
       H   -14.26058  -19.04380   11.67248
       O   -14.42130  -18.21358   12.19307
      H1   -13.53755  -18.03299   12.50075
       H   -17.53250  -15.33861    5.70570
       O   -18.17129  -14.72181    6.15334
      H1   -18.95237  -15.26381    6.38767
       H    -9.01221  -13.31834    3.58430
       O    -8.98722  -12.49272    3.11409
      H1    -8.53326  -12.44132    2.26583
       H   -10.42685  -14.33964    9.15165
       O   -10.23547  -15.05693    9.75697
      H1   -10.77698  -15.80243    9.54289
       H   -16.07071  -17.83229   -0.24478
       O   -15.69478  -17.02756    0.15987
      H1   -15.20831  -17.25417    0.91017
       H    -9.75629  -19.05798   -0.84039
       O    -9.72905  -18.72520   -1.77827
      H1   -10.53219  -18.31234   -1.93864
       H   -15.44855  -17.45458    3.73783
       O   -15.33846  -18.05163    2.93018
      H1   -14.88770  -18.87393    3.28710
       H   -15.03820  -13.25823    9.04951
       O   -15.66503  -14.04601    8.97948
      H1   -15.31940  -14.74714    9.58621
       H    -3.91572  -16.07824    6.03437
       O    -3.21559  -15.59983    6.59718
      H1    -2.56048  -15.51185    5.92674
       H   -11.16423  -18.23311   12.08703
       O   -11.60446  -18.07527   12.91614
      H1   -11.17494  -17.27342   13.16400
       H   -11.38438  -11.19865    4.69494
       O   -11.17063  -11.15281    3.71244
      H1   -10.37371  -11.72835    3.64405
       H   -12.22205  -16.69741    2.06000
       O   -11.65626  -16.61460    1.25325
      H1   -11.84764  -15.67842    1.03479
       H   -10.26373  -14.24098    5.28697
       O    -9.27782  -14.17732    5.37133
      H1    -9.11035  -14.54071    6.28839
       H    -7.21208  -16.73741    2.53432
       O    -6.52738  -16.17662    2.13164
      H1    -7.05377  -15.67600    1.53306
       H   -10.70668  -11.83010    7.29156
       O   -10.64709  -11.15878    6.61525
      H1    -9.74304  -10.80030    6.69880
       H    -6.56384  -19.47126    9.39081
       O    -7.01876  -18.77370    8.92385
      H1    -6.42985  -17.98566    8.86607
       H   -12.65697  -18.63668    7.38679
       O   -12.86947  -18.17440    8.17421
      H1   -13.39239  -18.77872    8.75472
       H    -3.58433  -18.85970    7.04645
       O    -3.44629  -18.11653    7.68908
      H1    -3.11680  -17.38077    7.10864
       H    -6.54953  -13.03245    3.84573
       O    -6.08327  -13.66688    3.30482
      H1    -6.58555  -14.47476    3.05654
       H    -8.59654  -16.86648    5.93510
       O    -7.84253  -16.99473    6.53829
      H1    -7.97180  -16.39680    7.25475
       H   -11.13282  -14.19832   11.32190
       O   -11.65154  -13.52719   11.76581
      H1   -12.43091  -14.05400   12.18646
       H   -18.44345  -18.86647    6.06346
       O   -19.41600  -18.66900    5.90795
      H1   -19.66483  -18.79428    5.00388
       H    -3.12787  -16.87543    2.10350
       O    -3.92752  -17.43452    2.29573
      H1    -4.70393  -16.90634    2.10157
       H   -14.39162  -12.15062    3.64487
       O   -14.68484  -12.64622    4.39085
      H1   -14.46168  -12.09208    5.17091
       H    -8.20756  -15.05327   -0.59440
       O    -7.79020  -14.78525    0.22605
      H1    -8.03196  -13.84275    0.34090
       H   -13.69882  -16.30129    7.47129
       O   -14.05168  -15.50130    7.02559
      H1   -14.72890  -15.06493    7.64638
       H    -8.46103  -15.05967    9.34208
       O    -7.76966  -15.17299    8.67099
      H1    -6.93345  -15.18340    9.08436
       H   -16.18220  -17.09696    5.65955
       O   -15.80889  -16.42230    5.13080
      H1   -15.16164  -16.05873    5.71813
       H   -13.03990  -14.37249   -0.77913
       O   -12.81822  -14.04325    0.17565
      H1   -13.61960  -13.59457    0.44381
       H   -12.35945  -13.07611    8.53723
       O   -11.46867  -13.30028    8.13436
      H1   -11.73074  -13.55767    7.23366
       H   -12.92054  -13.62280    5.26780
       O   -12.08744  -13.99458    5.64403
      H1   -12.49567  -14.75076    6.12800
       H   -10.33319  -18.77133    9.47346
       O   -10.93622  -18.26362   10.05356
      H1   -11.71044  -18.19599    9.45144
       H    -7.67925  -13.46856    8.13255
       O    -7.46668  -12.53544    7.86088
      H1    -6.54090  -12.44725    8.01620
       H    -3.27608  -18.86672    5.20238
       O    -3.60266  -19.79536    5.48759
      H1    -2.79580  -20.32309    5.55183
       H   -12.39465  -17.71440   -2.00800
       O   -11.93249  -17.33904   -2.76191
      H1   -12.29245  -17.77318   -3.51874
       H   -13.92044  -15.71087    3.68015
       O   -12.96327  -15.90829    3.72041
      H1   -12.50299  -15.02475    3.97979
       H   -15.71535  -15.32957   11.34072
       O   -14.96390  -15.71578   10.89881
      H1   -14.88878  -16.64279   11.21551
       H   -12.59712  -17.50276    0.20145
       O   -13.18922  -17.86634   -0.52390
      H1   -14.06590  -17.40884   -0.41728

