135
frame 6 | Written by MDAnalysis XYZWriter (release 2.4.3)
       H    14.41690  -12.84245    3.62497
       O    13.66480  -12.74369    3.06553
      H1    13.00526  -13.43856    3.30069
       H    13.31374   -5.96390    3.97071
       O    13.73434   -5.90789    4.79793
      H1    14.59716   -6.39589    4.67065
       H    13.77704   -9.83299    1.06775
       O    13.33530   -9.40858    0.34090
      H1    12.62318  -10.11650    0.08178
       H    17.03255  -10.74085   -0.23485
       O    17.39291  -10.35725    0.60481
      H1    16.75380  -10.74909    1.17025
       H    17.10922   -5.65032   -4.75231
       O    17.95444   -5.72769   -4.36026
      H1    17.88399   -5.63639   -3.42409
       H    14.68752  -12.65352    1.50073
       O    15.07321  -12.93223    0.67752
      H1    15.95969  -13.31908    0.76408
       H    13.49196   -3.24720   -2.93928
       O    13.96633   -3.34113   -2.10385
      H1    14.08442   -4.31096   -1.94061
       H    13.57818   -6.13211   10.27213
       O    13.22567   -6.10719    9.36386
      H1    13.44253   -5.29163    8.88954
       H    19.38311  -11.94798    3.07396
       O    18.58536  -11.45504    3.30089
      H1    18.36051  -10.91359    2.49568
       H    18.89189  -12.43361    7.13231
       O    18.61858  -13.03824    7.86208
      H1    19.34903  -13.51224    8.25563
       H    15.67794  -12.08149    5.29435
       O    15.94859  -12.11914    4.36934
      H1    16.85597  -11.85122    4.13765
       H    12.76995   -8.72154    6.31703
       O    13.38089   -9.56414    6.35082
      H1    14.25812   -9.19078    6.26258
       H    14.96546  -10.70312    3.36819
       O    15.03125  -10.21273    2.56157
      H1    15.29184   -9.33673    2.90807
       H    19.84375   -4.19734    6.79605
       O    19.32296   -3.33573    6.68805
      H1    18.53386   -3.49332    7.23986
       H    12.62101  -11.26549    3.43807
       O    12.20202  -10.43619    3.79327
      H1    12.75441  -10.19412    4.54806
       H    19.01545   -6.22545   -1.45307
       O    18.15715   -5.88320   -1.68808
      H1    18.14434   -4.99827   -1.21454
       H    17.25614   -7.66622    3.30718
       O    16.32997   -7.89049    3.61533
      H1    16.36892   -8.20213    4.51616
       H    12.32288   -5.74136    0.37570
       O    12.91029   -4.99891    0.50929
      H1    13.72432   -5.40980    0.82032
       H    14.23868   -4.14332    4.43364
       O    14.50575   -3.21383    4.63051
      H1    15.43548   -3.25820    4.33031
       H    13.76576   -7.76216    8.81401
       O    14.06397   -8.72214    8.91656
      H1    13.53593   -9.21939    8.30233
       H    10.42527   -7.63475    5.01516
       O     9.72152   -7.87188    4.42820
      H1    10.05102   -7.54060    3.62052
       H    14.48693   -9.77178   -1.23307
       O    15.06965   -9.84383   -2.00409
      H1    15.84743   -9.34696   -1.75019
       H    17.10073   -1.67926    5.13193
       O    17.48314   -2.48183    4.75079
      H1    18.16412   -2.74655    5.40333
       H    11.67315   -7.97394   -0.30583
       O    11.09096   -7.22747   -0.37027
      H1    10.64255   -7.39984   -1.26280
       H    16.67301   -4.40243    8.24313
       O    17.18715   -3.62706    8.50113
      H1    17.73360   -3.74955    9.30381
       H    16.46481   -3.25239    0.45543
       O    15.66816   -2.96367    0.91503
      H1    15.03615   -2.99593    0.13295
       H    20.12574   -3.59737    3.31868
       O    19.32101   -3.66313    2.75609
      H1    18.61327   -3.17029    3.20207
       H    20.16578  -11.32184    5.94849
       O    19.30689  -10.95833    5.99176
      H1    19.05676  -11.01929    5.06230
       H    13.35383   -3.47354    7.68612
       O    13.92498   -4.14195    7.27820
      H1    13.97531   -4.00199    6.32191
       H    12.01604   -4.89091    1.88115
       O    11.16632   -4.75409    2.46906
      H1    10.69364   -5.59489    2.24595
       H    15.25611  -13.03881    8.38695
       O    15.61319  -12.80983    7.49463
      H1    16.52123  -13.16768    7.46180
       H    13.28432   -1.97729    3.55698
       O    12.74837   -1.56074    2.89137
      H1    12.42113   -0.83130    3.41261
       H    11.16415   -6.86919    6.91480
       O    11.75191   -7.29755    6.27293
      H1    12.42653   -6.69677    6.05384
       H    15.99329  -15.83339    4.39476
       O    15.70493  -15.52097    3.50481
      H1    15.97880  -14.53469    3.52530
       H    15.96423   -6.48360    0.89273
       O    15.33681   -5.95062    1.31858
      H1    15.66448   -5.03757    1.23202
       H    15.31891   -1.53019    1.59390
       O    14.95816   -0.66826    1.89513
      H1    14.19621   -0.91538    2.38710
       H    19.16537   -6.99414    2.56783
       O    18.69518   -6.48472    3.20303
      H1    18.74306   -5.53347    3.01250
       H    18.52011   -2.90658   -0.14234
       O    18.26639   -3.76867    0.22597
      H1    18.42871   -3.69168    1.22128
       H    18.90448   -9.43636    7.06446
       O    18.88309   -8.52092    7.47593
      H1    19.28839   -7.94968    6.82847
       H    13.95984   -7.06117   -2.79736
       O    14.26773   -6.18124   -2.84923
      H1    13.52203   -5.76246   -3.27615
       H    13.00938   -7.76461    2.23405
       O    12.23247   -7.65762    2.81429
      H1    12.10914   -8.62039    2.98725
       H    15.53381   -8.51533    7.37751
       O    16.13425   -8.58878    6.69007
      H1    17.00884   -8.34093    7.05047
       H    17.48537   -7.42608   -0.64645
       O    16.73669   -7.83286   -0.25719
      H1    16.97684   -8.70021    0.06569
       H    18.84856  -11.41873   -3.18149
       O    19.18443  -11.04295   -2.28300
      H1    19.41548  -11.87041   -1.82447
       H    18.41758   -8.27013    9.32488
       O    17.98640   -8.13573   10.20808
      H1    17.26060   -8.78705   10.32783

