135
frame 10 | Written by MDAnalysis XYZWriter (release 2.4.3)
       H   -19.59940  -15.36612   -7.68507
       O   -19.32666  -16.29766   -7.70796
      H1   -19.60219  -16.79182   -8.46611
       H   -17.52248  -13.35375   -9.39517
       O   -17.63365  -14.11317   -9.97024
      H1   -16.81469  -14.64938   -9.96279
       H   -16.81500   -8.13584  -15.20025
       O   -17.62065   -7.66450  -15.07414
      H1   -17.73857   -7.53242  -14.13130
       H   -17.32296  -19.63957   -5.37441
       O   -16.90062  -18.77218   -5.12015
      H1   -17.63079  -18.20622   -4.88348
       H   -12.19842  -19.09868   -8.61809
       O   -12.28210  -19.23956   -7.68443
      H1   -13.18817  -19.05129   -7.41042
       H   -15.70828   -9.75450  -14.47701
       O   -15.01380   -9.07965  -14.57879
      H1   -14.20976   -9.49130  -14.18459
       H   -13.06764  -15.65330  -14.79534
       O   -12.45065  -14.92410  -14.76508
      H1   -12.44949  -14.40728  -15.53749
       H   -17.55957  -15.66253   -7.40657
       O   -16.75976  -15.50988   -6.95762
      H1   -16.96382  -15.80492   -6.03262
       H   -18.29085  -13.98238  -18.13404
       O   -17.76624  -14.55995  -17.56386
      H1   -18.39104  -15.02211  -17.02450
       H   -18.24405  -14.84739   -3.74664
       O   -19.09386  -14.39437   -3.50002
      H1   -19.63270  -15.00576   -2.98719
       H   -15.68187  -10.05350  -17.63122
       O   -16.32098  -10.81689  -17.65089
      H1   -16.56393  -10.97233  -16.76575
       H   -19.34532  -10.40701  -17.71792
       O   -19.21395   -9.62559  -18.22175
      H1   -18.26707   -9.46049  -18.29651
       H   -15.19281  -12.83252  -12.47728
       O   -15.75917  -12.59081  -13.29940
      H1   -15.55103  -13.23297  -14.03979
       H   -15.83776  -13.27888  -16.59748
       O   -15.21667  -13.51127  -15.88771
      H1   -14.36920  -13.02278  -16.02613
       H   -13.76836  -18.58907  -16.04428
       O   -14.40451  -18.77715  -15.29543
      H1   -13.86468  -19.34624  -14.71180
       H   -15.39206  -18.48575   -6.31130
       O   -14.67320  -18.29725   -6.88700
      H1   -14.47015  -17.33978   -6.70401
       H   -19.39529  -16.95815   -5.98246
       O   -19.28389  -17.34359   -5.02951
      H1   -19.72850  -16.70286   -4.48554
       H   -13.78533  -10.78528  -11.08720
       O   -14.36477  -10.41380  -11.72325
      H1   -14.51146  -11.22570  -12.28720
       H   -18.96576   -9.44245  -15.11945
       O   -19.61215  -10.16214  -15.11539
      H1   -20.09205  -10.06437  -14.28118
       H   -19.22466   -7.94239  -12.05717
       O   -18.73671   -7.28873  -12.60675
      H1   -19.36233   -6.69654  -13.07064
       H   -16.42447  -18.85646  -11.30714
       O   -16.97345  -19.64296  -11.28329
      H1   -17.85656  -19.30554  -11.46903
       H   -18.10519   -8.87222   -9.04225
       O   -18.56997   -8.93047   -8.19501
      H1   -18.39267   -8.09890   -7.69879
       H   -17.36599  -16.53658  -17.70902
       O   -16.91256  -17.37590  -17.47980
      H1   -15.98689  -17.14104  -17.19162
       H   -17.37315  -11.45679   -7.51175
       O   -17.62744  -12.16825   -8.14387
      H1   -18.36015  -12.67058   -7.79819
       H   -11.90969  -12.00653  -13.06449
       O   -12.06626  -12.79190  -12.54051
      H1   -11.90417  -13.51801  -13.14123
       H   -17.90272  -17.33451  -13.47122
       O   -17.43636  -16.45253  -13.22376
      H1   -18.25444  -15.96633  -13.04982
       H   -15.65193   -8.30686   -9.99701
       O   -16.42684   -8.90476  -10.22118
      H1   -15.85036   -9.58813  -10.56291
       H   -16.02242  -13.47827   -6.47232
       O   -15.98835  -12.74769   -5.85409
      H1   -16.86406  -12.41503   -5.80681
       H   -15.13477  -13.20102   -4.37940
       O   -14.60611  -13.79773   -3.82778
      H1   -14.66536  -13.55312   -2.90255
       H   -18.64595  -13.80637  -12.84770
       O   -18.49122  -12.98345  -13.36435
      H1   -17.56988  -12.77267  -13.17467
       H   -14.45857  -18.49223  -10.94602
       O   -15.00318  -17.78652  -11.22578
      H1   -14.78869  -17.47816  -12.13830
       H   -20.24000  -15.13778  -11.78603
       O   -19.25114  -15.12160  -11.85597
      H1   -18.92461  -14.86667  -10.98391
       H   -11.69995  -14.32370   -8.07033
       O   -11.69988  -14.39027   -7.16238
      H1   -11.43928  -15.24983   -6.99694
       H   -16.81854  -11.60444  -14.49212
       O   -16.98383  -10.78021  -14.92966
      H1   -17.94995  -10.72902  -15.02154
       H   -17.49732   -9.75258   -7.06758
       O   -16.97287  -10.18780   -6.38601
      H1   -16.10715   -9.79319   -6.57172
       H   -13.26216  -12.15064   -9.37137
       O   -12.76929  -11.48986   -8.89079
      H1   -13.38579  -11.16434   -8.21294
       H   -11.74777  -18.54763  -10.69974
       O   -12.43808  -19.12626  -10.26060
      H1   -12.05158  -20.01525  -10.44707
       H   -18.82484  -19.06756  -15.23011
       O   -19.09764  -18.67215  -14.40354
      H1   -19.30250  -19.39634  -13.83167
       H   -18.72195  -12.28411  -11.20261
       O   -19.34215  -11.60901  -10.97798
      H1   -20.02573  -11.61245  -11.67677
       H   -14.57609  -17.44282  -14.29747
       O   -14.65831  -16.70555  -13.66400
      H1   -15.59093  -16.53936  -13.63177
       H   -15.50049  -15.99212   -8.75558
       O   -15.32697  -15.64809   -9.61799
      H1   -15.33733  -16.40632  -10.25254
       H   -16.07263  -14.83891   -3.96405
       O   -16.70559  -15.49730   -4.13496
      H1   -16.34987  -16.23216   -3.54441
       H   -13.44965  -13.45448  -11.41859
       O   -14.29391  -13.23484  -11.04457
      H1   -14.58585  -14.03034  -10.57955
       H   -15.01495  -11.02349   -6.88860
       O   -14.24536  -10.47507   -6.75010
      H1   -13.55621  -10.94169   -6.33271
       H   -14.19785  -15.44929   -5.05223
       O   -13.73973  -15.87782   -5.79726
      H1   -13.31432  -15.13374   -6.30722

