135
frame 0 | Written by MDAnalysis XYZWriter (release 2.4.3)
       H     7.79161    0.21368   -0.46204
       O     7.58161   -0.56905    0.06593
      H1     8.41867   -0.81354    0.52556
       H     6.08049   -1.69219    2.84546
       O     5.96132   -1.98826    1.90086
      H1     6.51162   -1.40610    1.36121
       H    10.91585   -1.20110   -0.60262
       O    11.49413   -1.26772   -1.41753
      H1    11.98134   -2.14172   -1.35586
       H     5.67463   -3.22529    0.62986
       O     5.59956   -3.90345   -0.01631
      H1     6.27204   -3.72662   -0.66739
       H    12.33631    4.62743   -5.89940
       O    12.29860    4.68202   -4.97704
      H1    13.00809    5.32913   -4.71287
       H    13.08559   -4.32338   -1.75189
       O    12.25893   -4.02130   -1.30400
      H1    11.63610   -3.99749   -2.05113
       H    11.48957   -3.06026   -6.27638
       O    11.78347   -2.56875   -5.47490
      H1    11.31653   -2.92311   -4.68508
       H     2.83155    2.82349    1.35378
       O     3.03376    2.95424    0.40927
      H1     3.66970    2.31463    0.12735
       H    12.39707    3.07584   -0.76974
       O    12.31593    3.99909   -0.84046
      H1    13.18136    4.35651   -0.94144
       H     9.39162   -0.08089    2.64324
       O     8.92305   -0.03553    3.46604
      H1     8.75847    0.92464    3.58941
       H     5.81976    4.09728    1.33448
       O     6.46016    3.50980    0.94655
      H1     6.76879    3.88896    0.09749
       H    10.36748    2.30015   -7.12900
       O     9.52943    2.84197   -7.28915
      H1     8.90804    2.11606   -7.37789
       H    14.62940   -1.35833   -2.69186
       O    15.02171   -1.47009   -1.77301
      H1    15.61838   -0.72197   -1.61948
       H     8.80625   -4.29829   -0.36438
       O     8.28018   -3.88488   -1.00984
      H1     8.80148   -3.15378   -1.41735
       H     4.78406    1.16932   -3.80987
       O     4.71517    0.34141   -3.25056
      H1     5.15136    0.54026   -2.42527
       H    15.99613    1.30719   -0.55395
       O    15.61698    1.48917   -1.39956
      H1    16.31822    1.88451   -1.97348
       H    10.01885    0.41594    0.89765
       O    10.07012   -0.53591    0.98242
      H1    10.96122   -0.82864    1.29836
       H    11.18219    5.77887    2.01387
       O    11.02424    4.90931    1.65133
      H1    11.56694    4.85374    0.81694
       H     7.25609    6.83147    1.43069
       O     8.09114    6.74665    1.85568
      H1     8.11214    5.81835    2.10359
       H     6.10861    2.37466    2.37039
       O     5.85884    1.65922    2.95078
      H1     6.34198    1.71806    3.76876
       H    14.42460   -3.60873    1.00691
       O    14.02068   -2.75701    0.97709
      H1    14.15820   -2.37288    0.16599
       H     9.37042    1.74444   -4.37831
       O     9.74424    0.80860   -4.13545
      H1    10.65346    1.09574   -3.99796
       H    13.60630    1.27691   -1.40630
       O    12.61669    1.37148   -1.31474
      H1    12.28822    0.52822   -1.16762
       H    12.72443   -2.23363    1.95500
       O    11.99219   -1.85592    2.46287
      H1    11.87245   -2.43032    3.21009
       H    11.37176    1.56797    1.83955
       O    10.88502    2.13978    1.21797
      H1    11.14216    3.01130    1.50349
       H    12.24325   -0.20749    2.94649
       O    12.58428    0.69452    3.13273
      H1    12.62169    0.63545    4.08260
       H    12.03115    2.56040   -4.30131
       O    12.38010    1.72357   -3.97014
      H1    12.41851    1.82805   -2.95601
       H     5.62140    5.07163   -5.54459
       O     6.30411    4.74571   -6.12538
      H1     6.89963    4.17833   -5.62336
       H    12.05840    6.52557   -1.76777
       O    11.42982    7.24649   -2.00922
      H1    11.20223    7.11041   -2.94045
       H     9.91495    4.77723   -2.02624
       O    10.37549    4.23948   -2.64160
      H1    11.25135    4.31071   -2.19696
       H     6.96254    3.28759   -2.86326
       O     7.16604    3.36123   -1.95148
      H1     7.88215    2.73528   -1.82960
       H     7.56157   -1.21366   -2.62912
       O     8.19271   -1.49656   -3.31557
      H1     8.70780   -0.65598   -3.53091
       H    10.46700   -0.38760   -7.17212
       O     9.86741   -0.76935   -7.82076
      H1     9.78876   -1.70900   -7.58681
       H    11.87098    0.96101   -5.83274
       O    11.72365    1.12014   -6.78802
      H1    12.49673    1.44406   -7.19260
       H     9.67348   -4.43201   -3.50170
       O    10.12974   -3.56775   -3.38087
      H1     9.48314   -2.82003   -3.33611
       H    13.34980    0.19214   -4.07555
       O    13.98076   -0.49446   -4.43939
      H1    13.38009   -1.19089   -4.65782
       H     3.33586    2.94177   -5.06412
       O     3.84145    2.84073   -4.24924
      H1     3.35625    3.00688   -3.37806
       H     7.57375    6.84763   -1.71040
       O     7.15052    7.46635   -2.33965
      H1     7.58506    7.28417   -3.18635
       H     5.24589   -0.85225   -4.46301
       O     5.61998   -1.65903   -4.91213
      H1     6.49413   -1.75650   -4.59728
       H     9.30689    3.26246   -5.59785
       O     8.86448    3.33926   -4.71757
      H1     9.39984    3.85844   -4.09190
       H     5.51982    2.24088   -0.31997
       O     5.18335    1.34789   -0.48742
      H1     5.45317    0.83053    0.29228
       H    10.78764    5.83609   -4.82866
       O    10.55434    6.73287   -4.52888
      H1     9.75517    7.02642   -4.99366
       H     7.91977    3.73603    1.98377
       O     8.48684    4.21894    2.64208
      H1     9.37920    4.32943    2.28340
       H    10.03999    7.01620   -0.92385
       O     9.33183    6.40577   -0.56051
      H1     8.97246    6.68909    0.33328
       H     9.47082    1.27224   -1.90757
       O     9.13545    1.43605   -0.99429
      H1     9.79405    1.86039   -0.42881

