135
frame 4 | Written by MDAnalysis XYZWriter (release 2.4.3)
       H   -11.01866    9.62930  -12.73203
       O   -10.76480    8.80367  -13.21251
      H1   -11.49347    8.17544  -13.33508
       H   -19.59179    0.37658  -10.84356
       O   -18.85454    0.82473  -10.42544
      H1   -18.60387    0.25308   -9.71717
       H   -17.75839    1.45671  -14.82314
       O   -17.82274    1.79432  -13.89568
      H1   -17.20453    2.52956  -14.00016
       H   -11.54034    7.53973  -17.65880
       O   -10.59984    7.23182  -17.65147
      H1   -10.22655    7.61277  -18.43254
       H   -16.12925    0.55672  -13.66776
       O   -15.33685    0.17462  -13.27854
      H1   -14.73518    0.10737  -14.03569
       H   -17.79988    4.10247  -10.77600
       O   -18.02929    3.54803  -11.50897
      H1   -18.27332    2.73352  -11.10492
       H   -14.18198    1.74186  -15.20497
       O   -14.75351    2.15719  -15.86810
      H1   -15.12982    2.88822  -15.33425
       H   -15.88260    6.48687  -16.56345
       O   -15.76661    5.52805  -16.58393
      H1   -14.87711    5.29544  -16.85472
       H   -17.42887    0.45556  -17.19108
       O   -17.20889    0.73265  -16.31055
      H1   -16.33073    1.10518  -16.37742
       H   -10.91534    5.65862  -18.46283
       O   -11.11625    4.82978  -18.89606
      H1   -11.98511    4.59691  -18.53379
       H   -18.99021    3.24227  -18.08519
       O   -19.40782    2.44098  -18.43800
      H1   -18.67675    1.76864  -18.36830
       H   -12.84119    6.99445  -15.89838
       O   -13.12527    7.35894  -16.74792
      H1   -13.30560    8.32827  -16.53597
       H   -15.53363    1.29697  -11.73294
       O   -15.74084    2.11888  -11.19781
      H1   -16.53751    2.48641  -11.63181
       H   -13.71436    9.65432   -9.74331
       O   -12.85305    9.36751  -10.00119
      H1   -12.33899   10.20992  -10.03499
       H   -13.44250   -0.06146  -10.32780
       O   -12.57922   -0.25196   -9.99133
      H1   -11.99006   -0.06467  -10.82261
       H   -10.88919    5.90116  -11.73987
       O   -10.16028    6.21236  -12.28311
      H1    -9.59055    6.62071  -11.63808
       H   -13.57266   -2.20761  -12.70218
       O   -12.77010   -1.82560  -13.08212
      H1   -13.06598   -1.40348  -13.91590
       H   -16.28709   10.43984  -18.41037
       O   -16.82590   10.36519  -17.61752
      H1   -16.72858    9.52128  -17.21171
       H   -11.60698    4.46251  -10.42710
       O   -11.99419    3.80788  -10.99220
      H1   -12.77543    4.19493  -11.36147
       H   -16.31059    7.36660  -12.50003
       O   -15.54544    7.21185  -11.92452
      H1   -14.99382    7.98654  -12.02466
       H   -14.59132    6.94528   -8.15450
       O   -15.43303    7.34353   -8.35145
      H1   -15.79962    6.66203   -8.92318
       H   -12.92432    5.74578   -6.51244
       O   -13.24099    5.40922   -7.36956
      H1   -12.57768    5.62725   -8.05103
       H   -10.85032    3.02042  -12.20591
       O   -10.08147    2.54690  -12.62033
      H1    -9.55088    3.17958  -13.13501
       H   -15.79253    3.46839   -7.14379
       O   -15.05163    3.11719   -7.60761
      H1   -14.35001    3.70426   -7.31371
       H   -19.65180   -0.89811  -13.27343
       O   -19.31217   -1.18981  -14.11564
      H1   -18.37414   -1.40058  -13.87079
       H    -9.45484    2.73036  -11.10749
       O    -9.25018    2.86656  -10.14078
      H1    -9.83365    2.16358   -9.71402
       H   -12.07113    7.47417  -10.22299
       O   -11.77306    6.58791  -10.02225
      H1   -11.00063    6.68970   -9.48113
       H   -17.80198    7.89021  -15.96526
       O   -16.82560    8.04022  -16.04363
      H1   -16.55621    8.39847  -15.23122
       H   -10.06365    3.22386  -17.80568
       O    -9.64944    2.54792  -17.24511
      H1   -10.29993    2.54053  -16.51419
       H   -18.53699    4.23183  -13.01418
       O   -18.93006    4.74857  -13.73332
      H1   -19.63350    4.16055  -14.16690
       H   -16.12158    1.16424   -9.56242
       O   -15.87119    0.76020   -8.74883
      H1   -15.74942    1.48579   -8.13350
       H   -16.28196    6.34496  -10.84560
       O   -16.69674    5.68870  -10.16729
      H1   -17.63485    5.99219  -10.13618
       H   -14.53560   10.54093  -15.44663
       O   -15.14266   10.52640  -14.65254
      H1   -15.58561   11.40434  -14.63255
       H   -14.76733    5.52044  -11.80179
       O   -14.47305    4.77775  -12.39779
      H1   -14.81619    3.96585  -11.95475
       H   -17.67288   -1.37309  -15.87614
       O   -17.21294   -2.22541  -15.78320
      H1   -17.91092   -2.91393  -15.97851
       H   -10.34412    0.50580  -15.41708
       O   -10.84749    1.23423  -15.02749
      H1   -10.62827    1.25901  -14.08607
       H    -8.65004    8.26328  -14.28628
       O    -8.66749    7.76664  -15.15364
      H1    -9.56894    7.29320  -15.13136
       H   -13.76978    3.84967  -18.61817
       O   -13.33021    3.98824  -17.76779
      H1   -13.72176    3.31410  -17.17048
       H   -18.84317    4.89150  -16.35152
       O   -18.58584    4.75358  -17.22392
      H1   -17.61263    4.82868  -17.25049
       H   -13.24324   -0.35487  -16.28420
       O   -13.10879   -0.21424  -15.34524
      H1   -12.31183    0.32449  -15.30735
       H   -12.79466    5.94498  -14.03146
       O   -12.05877    6.36571  -14.47898
      H1   -11.28060    6.09808  -14.00457
       H   -16.25037    4.48505  -15.04272
       O   -16.02195    3.86407  -14.33239
      H1   -15.46014    4.35889  -13.71264
       H   -13.55317    9.41102  -11.89895
       O   -13.67525    8.79316  -12.68188
      H1   -14.29103    9.32176  -13.23401
       H   -17.99717    6.14141  -13.51965
       O   -17.69774    7.03313  -13.31385
      H1   -18.37667    7.61490  -13.04657
       H   -15.40857    9.00932   -8.70699
       O   -15.26819    9.93172   -8.81513
      H1   -15.72492   10.25787   -9.59709

