135
frame 2 | Written by MDAnalysis XYZWriter (release 2.4.3)
       H    16.65686   -1.02479   12.53184
       O    16.34568   -1.71263   13.12687
      H1    15.62414   -1.39355   13.65826
       H    17.33086    4.22622    6.62970
       O    17.08463    3.63263    7.38176
      H1    16.20894    3.97290    7.69095
       H    17.08223    5.62004    5.13625
       O    17.75926    4.93915    5.13324
      H1    18.60534    5.48381    5.05865
       H    16.92211    5.21657   10.86178
       O    16.03397    5.60691   10.72062
      H1    15.43647    5.26542   11.32068
       H    18.58282    3.74846   10.64529
       O    18.37719    4.55968   11.20424
      H1    18.79979    4.34828   12.02746
       H    10.80545    5.34343   13.77897
       O    10.51504    6.25446   13.90397
      H1     9.70961    6.09466   14.43966
       H    13.39968    3.43926    8.47949
       O    14.29739    3.82319    8.56667
      H1    14.07919    4.76172    8.64339
       H    12.88129   -4.35633    7.40976
       O    13.60452   -3.94125    7.99494
      H1    14.00102   -3.26063    7.38396
       H    12.07191    0.98239   14.46243
       O    12.08086    0.02793   14.14040
      H1    12.22876    0.09608   13.20296
       H    13.73827    0.50806   11.29405
       O    13.66246   -0.41966   11.67037
      H1    13.88463   -1.02183   10.96509
       H    12.73983    1.96626    4.63710
       O    13.58273    2.37677    4.46877
      H1    13.25274    3.26423    4.26556
       H    14.69933   -1.37612    8.85844
       O    14.95034   -1.81555    9.66350
      H1    15.66642   -2.42210    9.61730
       H    14.52428   10.21610    8.78987
       O    14.59532    9.81640    9.67660
      H1    14.47272    8.86529    9.65211
       H    15.39822    2.20109   12.61104
       O    15.49424    2.68645   13.43986
      H1    15.22684    2.03734   14.10434
       H    13.74019    6.61678   14.82277
       O    13.23776    6.45219   14.01668
      H1    12.31631    6.27475   14.20804
       H    12.34805    6.93355    6.65072
       O    12.32923    6.96408    5.68924
      H1    11.48520    7.39118    5.47457
       H    16.57594    0.32980    5.08124
       O    16.93237   -0.35756    4.44781
      H1    16.36395   -0.34430    3.71065
       H    18.39450    1.61300    9.01260
       O    18.47516    2.53376    9.30234
      H1    18.12200    2.98439    8.53349
       H    13.51798    0.32128    7.25617
       O    13.76266   -0.61657    7.55405
      H1    13.98611   -1.13465    6.74335
       H    18.24801   -0.62042    7.92270
       O    17.75746    0.11603    8.23961
      H1    16.91957    0.14412    7.79601
       H    15.21083    7.26052    6.96639
       O    15.84740    7.01297    6.24157
      H1    15.57489    7.52170    5.49389
       H    16.49640   -4.50739   10.09033
       O    17.05111   -3.69238   10.23475
      H1    17.66846   -3.82217   10.95038
       H    16.35010   -0.79838   10.58068
       O    17.04055   -0.21538   10.92020
      H1    17.70947   -0.17196   10.19008
       H    19.86094    1.26672    6.64234
       O    19.67425    2.18138    6.38560
      H1    18.71570    2.28063    6.59844
       H     9.70056    1.23693   12.38657
       O     9.09807    0.51862   12.46702
      H1     8.45680    0.58082   11.78330
       H    12.29762    7.87353   11.95008
       O    11.68952    7.91639   11.18879
      H1    11.05374    7.19338   11.25790
       H    15.21600    2.60234    9.88366
       O    15.29547    2.01931   10.69637
      H1    16.01131    1.40405   10.51079
       H    11.17479   -1.02684    7.48997
       O    10.26151   -0.86888    7.16560
      H1    10.12290   -1.74439    6.78959
       H    11.61246   -0.38786   10.01465
       O    11.30007    0.48831   10.10815
      H1    10.38250    0.44899   10.19287
       H    19.33625    6.19431   10.94221
       O    19.78319    7.07061   10.87109
      H1    19.64936    7.41399   11.75107
       H    11.05095    7.41976    9.05304
       O    11.28659    6.83935    8.32062
      H1    11.13053    5.93568    8.56193
       H    13.49499    5.10418   12.88780
       O    13.68779    4.41256   12.26339
      H1    14.38009    3.91281   12.70342
       H    10.20866    4.19126    7.10466
       O    10.40452    4.27942    8.05378
      H1     9.71927    3.90101    8.65500
       H    16.08330    2.08866    6.60342
       O    15.77804    1.21792    6.41440
      H1    14.96777    1.43896    5.93263
       H    19.44736   -1.16144   11.97117
       O    19.69256   -1.85467   12.64114
      H1    19.27809   -1.56926   13.48596
       H    10.24594    3.14834   12.57060
       O     9.42627    3.56132   12.86451
      H1     8.88826    2.81216   12.81322
       H    15.11717    0.98297   16.16966
       O    14.41332    1.30684   15.57080
      H1    14.15916    0.52725   15.11199
       H    10.83190    0.68187    5.50363
       O    10.95127    0.96771    4.55565
      H1    10.21835    0.58461    4.09427
       H    11.56039   -2.97498   10.11399
       O    11.98628   -2.16267    9.81822
      H1    12.56308   -2.47307    9.14547
       H    16.16417    7.87433   14.10653
       O    16.62134    7.14315   14.51561
      H1    16.62062    6.39697   13.96426
       H    12.00066    1.92008   11.42212
       O    11.75486    2.55403   12.08401
      H1    12.52890    3.12697   12.08151
       H    16.55891    2.93634   14.71762
       O    17.04916    3.16227   15.52921
      H1    16.46243    3.50001   16.20647
       H    11.47247    2.49744    7.64689
       O    12.13961    1.86489    7.95315
      H1    11.85005    1.52169    8.83096
       H    13.43024    7.09824    9.26042
       O    14.37822    7.18099    9.05789
      H1    14.89191    6.50329    9.57944
       H    19.55877    1.43585   15.35414
       O    18.68066    1.10519   15.11674
      H1    18.04267    1.78426   15.43523

