135
frame 11 | Written by MDAnalysis XYZWriter (release 2.4.3)
       H     7.66323   10.16133  -11.91529
       O     8.65145   10.11658  -11.64251
      H1     8.71779   10.76070  -10.90793
       H    13.25902   10.16049  -13.11401
       O    13.40250   11.05392  -13.19993
      H1    13.97084   11.36646  -12.51549
       H    13.09906   12.42434  -15.61315
       O    13.64812   13.09151  -16.07795
      H1    14.46418   12.96576  -15.56277
       H    17.18711   14.89142  -15.98639
       O    17.19853   14.85331  -15.00369
      H1    16.60513   14.17365  -14.76040
       H     8.73312   14.73280  -10.37300
       O     8.02043   14.21256  -10.81617
      H1     8.46648   13.55582  -11.41559
       H    14.19755   13.44342   -9.49284
       O    14.59725   14.29215   -9.70622
      H1    13.82291   14.80940   -9.99022
       H    15.31354   13.31650  -10.81324
       O    15.70961   12.69963  -11.45819
      H1    16.62605   12.65625  -11.14249
       H    15.23898    7.90154   -8.01411
       O    14.39622    8.00580   -8.46856
      H1    13.94811    8.70755   -8.00024
       H    16.68445   16.40610  -14.54410
       O    16.59432   17.22835  -14.01529
      H1    15.69178   17.57775  -14.28255
       H    13.14914   17.60984  -13.22219
       O    12.60962   17.38865  -12.41087
      H1    11.75318   17.37264  -12.76583
       H    13.83505    7.36579  -16.06712
       O    14.77502    7.63542  -16.13258
      H1    15.30202    6.79722  -16.07147
       H    19.40028   10.10584   -9.73519
       O    18.99550    9.36891  -10.26613
      H1    18.03767    9.46873  -10.10137
       H    10.83447   13.72303   -9.01604
       O    10.87289   13.37702   -9.95181
      H1    10.67642   12.42550   -9.90594
       H    12.84669   11.11698   -9.80949
       O    13.72043   11.44173   -9.63386
      H1    13.67313   11.64130   -8.72991
       H    17.28834   10.87509  -15.04531
       O    17.84640   11.62956  -15.10844
      H1    18.12744   11.50353  -15.97868
       H    12.34392    7.56221  -14.76340
       O    12.15578    7.07566  -15.53236
      H1    12.06481    6.17134  -15.22936
       H    14.24773    7.76144  -13.21013
       O    13.34570    7.99427  -12.97281
      H1    13.23820    7.81764  -12.05138
       H    15.60373    8.94477  -15.13679
       O    16.01041    9.50519  -14.45766
      H1    15.31357   10.12366  -14.16848
       H     9.30779    9.12629  -12.95135
       O     9.62656    8.23119  -13.33789
      H1     9.57019    8.26406  -14.33315
       H    10.49092   10.41712   -8.83099
       O    10.96817   10.58027   -9.67019
      H1    10.90569    9.68870  -10.09900
       H    16.29643   12.32416  -14.42848
       O    15.53152   12.88171  -14.23422
      H1    15.52844   13.10748  -13.32441
       H    10.20586   15.45380  -15.93416
       O     9.71958   15.23291  -16.78525
      H1     8.78726   15.19591  -16.60982
       H     7.04534   13.33482  -17.74183
       O     7.98562   13.12827  -17.94020
      H1     8.31416   12.73876  -17.12596
       H     9.96488   13.30204  -15.90463
       O     9.87362   12.36756  -15.63641
      H1     9.55794   12.38257  -14.76813
       H    14.01025   13.40457   -7.01760
       O    13.33863   12.71880   -7.04709
      H1    12.55040   13.24623   -7.24120
       H    11.76559    7.69907  -18.47473
       O    10.90174    7.31721  -18.35650
      H1    10.82663    7.04457  -17.41952
       H    13.19765   14.72939  -15.53590
       O    13.03295   15.69047  -15.42660
      H1    12.62662   15.98691  -16.25499
       H    11.09006   15.45492  -14.28603
       O    10.34129   16.10221  -14.23799
      H1     9.72741   15.69067  -13.69104
       H    18.84544   11.09921  -11.11087
       O    18.69855   12.03976  -11.08410
      H1    19.43348   12.46651  -11.57249
       H    16.12499    8.56965  -11.73026
       O    16.28263    7.80693  -12.31374
      H1    16.50022    8.16816  -13.18330
       H    12.14634   12.52350  -12.92224
       O    11.71560   13.38979  -12.99036
      H1    12.09275   13.93561  -12.32453
       H    10.68698    8.08100  -11.79983
       O    11.18935    8.08232  -10.92967
      H1    10.63653    7.58040  -10.30475
       H     8.09794    8.07163  -15.86820
       O     9.07596    8.03992  -15.96873
      H1     9.31480    8.70163  -16.63251
       H     8.24955   11.90283   -8.62241
       O     8.04341   11.75136   -9.58096
      H1     7.78313   12.66672   -9.92420
       H    15.58776    9.11725   -9.73280
       O    16.21893    9.74842  -10.21382
      H1    15.79775   10.64841  -10.12484
       H    14.17961   12.44893  -17.91681
       O    14.48989   12.16374  -18.78456
      H1    15.42037   12.41436  -18.77081
       H    19.32853    7.72692  -16.68945
       O    18.47746    8.05214  -16.44569
      H1    18.41184    8.86557  -16.95080
       H    11.74178   14.90290  -10.46653
       O    12.18198   15.72732  -10.24497
      H1    12.32960   16.34464  -10.95217
       H    14.66251    7.63497  -18.27204
       O    14.11112    7.26880  -19.02641
      H1    14.35817    6.34841  -18.91481
       H    13.74858   18.71045  -15.13891
       O    14.14340   17.89601  -14.71816
      H1    13.76749   17.12222  -15.11811
       H    10.96317   11.48212  -16.63250
       O    11.81603   11.01635  -16.80360
      H1    11.66403   10.54958  -17.61396
       H    17.13547    6.59671  -16.40889
       O    16.57813    5.79900  -16.34034
      H1    16.44717    5.40688  -17.26034
       H    13.81521    6.33703   -8.67746
       O    13.53474    5.44175   -8.78177
      H1    13.70385    5.07543   -9.65366
       H     9.97485   12.92352  -12.88053
       O     9.02580   12.62955  -12.84467
      H1     9.06206   11.72233  -12.42828
       H    16.58764    5.99399  -11.59923
       O    16.93870    5.06351  -11.58534
      H1    17.18037    4.91971  -12.52968

