135
frame 2 | Written by MDAnalysis XYZWriter (release 2.4.3)
       H    -1.75958   -3.23654   12.46337
       O    -2.11488   -2.39675   12.22749
      H1    -1.53322   -1.75842   12.64920
       H     3.33044   -3.16217   11.35456
       O     3.90873   -3.57971   12.01610
      H1     3.22299   -3.98680   12.58521
       H     7.56170   -2.42683   11.05676
       O     6.91391   -1.99640   10.46650
      H1     6.53451   -2.77680   10.01198
       H     5.41220   -3.81671    8.15913
       O     5.87723   -4.10808    8.97755
      H1     5.24582   -4.48401    9.58227
       H     2.98563   -2.81785    7.36974
       O     3.66740   -3.53217    7.39051
      H1     3.05486   -4.22934    7.60348
       H     0.60112   -7.37270   14.28822
       O     1.28094   -6.78909   14.68998
      H1     2.10443   -7.06375   14.31501
       H     3.75306   -3.57132    5.54255
       O     3.96259   -3.64844    4.59503
      H1     3.10042   -3.71534    4.11342
       H    -0.71965   -0.62591   14.13081
       O    -0.90165   -0.15100   13.33689
      H1    -1.48254    0.62983   13.58194
       H     4.49813   -3.42799   14.81312
       O     5.46005   -3.39929   14.74572
      H1     5.63317   -3.17619   13.79862
       H    -0.52172   -3.17894    8.90336
       O    -0.28479   -3.84121    9.54039
      H1    -1.21015   -4.05513    9.82822
       H     3.81309    0.28609   17.44533
       O     4.05057    0.20559   16.54220
      H1     4.83847   -0.34501   16.51003
       H     8.06161   -4.78011    8.71641
       O     8.79229   -5.18692    8.20276
      H1     8.34893   -5.75949    7.56484
       H     2.32757   -0.69367    9.97722
       O     2.33420   -0.19360    9.17450
      H1     3.25997   -0.04085    8.92805
       H    -0.46975   -4.30545   13.56076
       O    -1.38234   -4.58649   13.72290
      H1    -1.73324   -4.07995   14.51646
       H     7.20728   -5.81461   12.88063
       O     7.62595   -5.90894   12.04981
      H1     7.99119   -6.77629   12.09192
       H     6.76399   -0.46740    6.50013
       O     6.52711    0.35262    6.92963
      H1     7.00637    0.36266    7.76609
       H    -2.78884   -6.89221   10.68015
       O    -2.79378   -6.96603   11.66483
      H1    -1.88673   -6.72607   11.89637
       H     2.68318   -0.31939   13.97735
       O     2.50464   -0.97849   14.68210
      H1     3.04944   -0.68725   15.41616
       H     3.76439   -6.95333   10.05034
       O     3.13171   -7.45388    9.59406
      H1     2.28310   -7.07949    9.78624
       H     9.70056    1.23693   12.38657
       O     9.09807    0.51862   12.46702
      H1     8.45680    0.58082   11.78330
       H     0.95917   -1.14185   15.49971
       O     0.02258   -1.37462   15.66884
      H1    -0.06133   -1.68814   16.57014
       H     0.85265   -1.91463   11.62846
       O     1.51542   -2.05381   10.98510
      H1     0.88752   -2.43060   10.35412
       H     6.31028    2.03580   12.79341
       O     6.93390    2.06380   12.07251
      H1     6.37557    1.61491   11.34607
       H    -0.12595   -1.89060    7.34061
       O    -1.03911   -2.14308    7.46924
      H1    -1.53185   -1.36229    7.20458
       H     8.70200   -0.63062    8.34676
       O     8.17849   -0.08315    8.97063
      H1     7.80646   -0.75340    9.56759
       H     8.53560   -4.27350   12.27184
       O     8.80911   -3.39532   11.98742
      H1     9.39970   -3.07562   12.71173
       H     4.61412   -5.15039   11.45008
       O     5.04620   -5.99468   11.20902
      H1     6.00716   -5.91358   11.25511
       H     2.04403  -10.25579   11.13149
       O     1.90224   -9.97912   10.21032
      H1     2.57013   -9.29100    9.97103
       H     4.42652   -7.23009   12.83238
       O     4.35687   -7.37870   13.79601
      H1     4.08925   -8.28622   13.94366
       H     4.99022   -8.11103   17.75187
       O     4.08379   -7.79685   17.79135
      H1     4.08234   -7.00880   17.24063
       H     2.18512   -1.39066    6.36283
       O     1.59937   -1.71479    7.01844
      H1     1.69598   -1.07920    7.75303
       H     1.29078   -5.40304   12.04205
       O     1.41941   -4.82347   12.80335
      H1     1.49265   -5.40893   13.56062
       H     5.84053   -0.41229   10.74619
       O     5.25674    0.34230   10.54067
      H1     4.42024    0.32200   11.10507
       H    -0.52845   -4.89130   16.02397
       O    -0.02386   -5.39684   16.66505
      H1     0.62311   -5.95006   16.14415
       H     0.31740    1.85539    8.71971
       O     1.11617    2.24073    9.11610
      H1     1.74317    1.54201    9.21918
       H     0.26337    1.04475   12.02865
       O     0.98966    1.67443   11.91970
      H1     0.95767    2.00974   10.99899
       H     0.13998   -7.27096   10.58281
       O     0.57811   -6.38840   10.49118
      H1     0.10713   -6.02252    9.77277
       H     1.21562   -5.77400    7.00837
       O     2.03896   -5.54943    7.52364
      H1     2.44068   -6.38836    7.79788
       H     7.23599   -0.95744   16.05853
       O     6.46083   -1.35037   16.41869
      H1     6.24270   -2.14905   15.91811
       H     3.39935   -4.49115   16.62358
       O     4.06166   -5.00965   17.14973
      H1     4.52533   -4.33628   17.64153
       H     5.46923   -6.56209   14.59440
       O     6.29046   -6.06782   14.84792
      H1     6.06355   -5.12376   14.89927
       H     4.32241    1.95038   13.62177
       O     3.96010    1.73539   12.72850
      H1     3.03063    1.86042   12.88931
       H     7.56898   -6.98395   15.92416
       O     8.29184   -7.26878   16.54404
      H1     7.84144   -7.68855   17.30628
       H    10.05405   -4.68778    9.49303
       O    10.56420   -4.62481   10.30978
      H1     9.94395   -4.03642   10.82122
       H     1.53659   -3.72595   16.68194
       O     2.00095   -3.58668   15.85229
      H1     1.60579   -2.80545   15.39132

