135
frame 10 | Written by MDAnalysis XYZWriter (release 2.4.3)
       H     5.16935   -7.99765    9.86546
       O     5.85542   -7.92663   10.59748
      H1     6.40801   -8.73186   10.46810
       H     7.23985  -10.96218   10.54813
       O     7.07039  -10.22365    9.87158
      H1     7.92037  -10.22846    9.31226
       H     4.68645   -1.69241   12.70152
       O     4.66815   -2.32202   11.95377
      H1     5.14037   -1.88141   11.21381
       H     8.16566   -3.78865   12.33799
       O     8.44340   -3.95251   11.42386
      H1     8.01526   -4.72778   11.05340
       H     5.04997   -7.48671    6.25466
       O     5.56503   -7.17678    6.99591
      H1     6.40163   -7.58753    6.88212
       H     5.29938   -3.15717    8.87669
       O     6.14038   -2.92430    9.23883
      H1     6.42074   -3.71912    9.68576
       H     3.21167   -2.92335    7.89315
       O     3.80390   -3.63717    7.69700
      H1     3.42649   -4.35106    8.21305
       H     1.96626   -6.72749   14.54162
       O     2.83744   -6.82180   15.00449
      H1     3.51558   -6.77322   14.26951
       H     9.05980   -9.59266   13.01880
       O     9.17761   -8.67340   12.73981
      H1     9.53043   -8.71332   11.82994
       H    -0.01282   -6.62530   13.44535
       O     0.68583   -6.00707   13.77072
      H1     0.96429   -5.63141   12.94001
       H     4.79509   -4.34003   16.24699
       O     5.02783   -3.64655   15.53311
      H1     6.00496   -3.76498   15.30447
       H     5.22714   -0.71316   17.11523
       O     5.41578   -1.05119   16.24325
      H1     5.19805   -2.00700   16.03428
       H    -1.33533   -8.81739   12.98919
       O    -0.91921   -7.97107   12.80310
      H1    -1.22151   -7.75382   11.92213
       H     0.91128   -3.20694   14.66984
       O    -0.06070   -2.97651   14.60438
      H1    -0.18191   -2.04040   14.42592
       H     6.82264   -6.62973    9.89488
       O     7.15169   -5.70806    9.75786
      H1     7.26580   -5.64119    8.80012
       H    -0.19353   -2.61691   10.95795
       O     0.36991   -2.66136   11.75491
      H1    -0.16983   -3.04220   12.42215
       H     4.13610  -10.80350   15.06203
       O     4.68602  -10.26945   14.44168
      H1     4.14208   -9.94205   13.68821
       H     0.57763   -8.80391   12.08581
       O     1.08727   -9.51591   11.75066
      H1     2.00556   -9.27164   11.76305
       H    10.20063   -5.63602   15.65025
       O    10.88051   -5.63317   14.92825
      H1    11.69798   -5.17578   15.30850
       H     3.25575   -0.16564   13.80225
       O     4.19954   -0.12782   13.95884
      H1     4.31385   -0.31539   14.90287
       H     2.65807   -4.68972   11.21038
       O     1.67699   -4.95218   11.18167
      H1     1.28647   -4.11178   11.44186
       H     3.20271  -10.88318   16.65623
       O     3.66206  -11.75969   16.63872
      H1     4.46224  -11.58615   17.11537
       H     2.71214   -7.35878   18.90585
       O     1.74783   -7.27754   18.87836
      H1     1.55687   -7.52856   17.94157
       H     7.40237   -4.05720   19.14418
       O     7.09103   -4.07576   18.24189
      H1     6.65712   -3.22923   18.11768
       H     8.57319   -1.09941    9.52321
       O     8.21157   -1.16656   10.46113
      H1     8.26938   -2.08783   10.77520
       H     6.30255   -0.93518    9.72283
       O     5.63493   -0.23643    9.76891
      H1     5.86811    0.37134   10.52058
       H     7.52773   -4.87644   14.23191
       O     7.67262   -3.90210   14.25535
      H1     8.20029   -3.81389   15.06153
       H     4.45552   -7.99995    8.22387
       O     3.79302   -8.48115    8.78578
      H1     3.23591   -7.68025    9.05774
       H     4.88993   -3.98471   11.72871
       O     4.70062   -4.94050   11.66615
      H1     5.37201   -5.30947   11.02558
       H     0.27608   -9.53748   10.09789
       O    -0.13827   -9.50630    9.24097
      H1    -0.90648   -8.86650    9.35116
       H     4.70151   -6.11188   12.78762
       O     4.86137   -6.84490   13.40448
      H1     5.04112   -7.66371   12.94721
       H     3.67542   -5.98376   16.46198
       O     4.18721   -5.71844   17.23990
      H1     5.01328   -6.16043   17.02475
       H     4.11729   -8.91136   11.18617
       O     3.79375   -9.48504   11.94539
      H1     3.94563  -10.42758   11.60815
       H     3.51723   -3.69925   14.69872
       O     2.57329   -3.89402   14.46725
      H1     2.44823   -4.86542   14.55640
       H     7.10811   -0.82969   13.43493
       O     7.30780   -0.30596   14.18824
      H1     6.92158   -0.81195   14.87794
       H     0.21644   -4.18386   16.21133
       O     0.11698   -5.08989   16.57957
      H1     0.34394   -5.70018   15.89127
       H     7.55366   -8.18472   17.37791
       O     7.69709   -9.08430   17.70919
      H1     8.59106   -9.21745   17.38547
       H     1.43044   -1.23508   12.81695
       O     1.56421   -0.50630   13.44107
      H1     1.47536    0.27028   12.86007
       H     7.65110  -11.38956   15.13373
       O     7.38453  -11.14033   14.23115
      H1     6.55529  -10.60927   14.31925
       H     1.57777   -6.44632    8.29977
       O     2.30427   -6.28893    8.95677
      H1     1.82244   -5.79437    9.65125
       H     6.59652   -6.84049   13.48284
       O     7.49803   -6.60289   13.77664
      H1     8.11435   -7.34366   13.50572
       H     3.14402  -12.17744   11.10147
       O     4.05535  -11.93982   10.93586
      H1     4.26518  -12.07509    9.99805
       H     6.96901   -6.53563   15.81583
       O     6.76149   -6.63613   16.73665
      H1     7.02314   -5.81888   17.17864
       H    10.13649   -4.83186   12.17000
       O    11.07544   -5.03500   12.35646
      H1    11.07890   -5.19921   13.31305
       H     2.04190   -9.22727   16.29903
       O     2.98814   -9.17049   16.52872
      H1     3.54156   -9.13828   15.77147

