135
frame 10 | Written by MDAnalysis XYZWriter (release 2.4.3)
       H     2.73493    9.43099   -3.01649
       O     2.50953    9.56159   -3.97438
      H1     3.12410    8.91968   -4.46111
       H     7.12841    3.80484    4.57433
       O     7.00046    2.93048    4.96633
      H1     7.81002    2.57113    5.38061
       H     7.85796    9.18133   -2.09526
       O     6.98428    8.83327   -2.36450
      H1     6.87045    9.10627   -3.28131
       H     1.99934    4.43961    1.31099
       O     2.44311    3.67344    1.62096
      H1     2.11730    3.00848    1.03400
       H     7.29656    9.86635    4.10516
       O     7.88805    9.11781    3.92844
      H1     7.79113    8.93528    2.96238
       H     4.24792    6.97905   -4.37678
       O     4.02036    7.63171   -5.02358
      H1     3.96292    7.20415   -5.89089
       H     3.23133    6.43157    6.95989
       O     3.61358    6.09821    6.15293
      H1     4.02616    5.25552    6.43396
       H     5.85266   11.65772   -1.07984
       O     5.41284   10.81930   -1.38626
      H1     6.13221   10.18882   -1.50610
       H     8.34824    7.80758    4.98478
       O     8.35336    7.01062    5.58489
      H1     9.22487    6.58674    5.46806
       H     0.14642    5.94872    1.18972
       O     1.10926    5.97385    1.34522
      H1     1.35680    6.90481    1.33262
       H     6.08911    2.86979   -0.98362
       O     6.35521    3.64037   -0.54280
      H1     5.54647    4.06900   -0.15395
       H     5.64539    5.92033   -2.24146
       O     4.80403    5.72374   -2.70815
      H1     4.21663    5.68207   -1.97032
       H     7.50725    9.05304    0.56965
       O     7.59485    8.24114    1.06948
      H1     8.45969    7.92292    0.87950
       H     1.60915    4.52781   -1.81543
       O     1.32722    3.60190   -2.01246
      H1     1.38053    3.59597   -3.00884
       H     3.61374    8.71195   -0.64652
       O     2.80966    8.75920   -1.20705
      H1     2.45340    7.85240   -1.23185
       H     7.30498    6.34107    4.50250
       O     6.81473    5.66107    3.91250
      H1     7.27450    5.55429    3.11647
       H     0.45113   12.80759    0.93776
       O     0.96775   12.06513    0.55762
      H1     1.48644   12.48852   -0.15575
       H     7.11099    8.40578    6.78088
       O     6.72309    8.90970    7.49450
      H1     7.08734    9.83484    7.41507
       H    10.09208   10.38280    5.53253
       O    10.31745   10.30235    4.59395
      H1     9.53842    9.96321    4.22460
       H     5.67543    7.84844    0.80602
       O     4.78925    7.59361    0.51508
      H1     4.29173    7.87132    1.30143
       H    10.26996    7.27048   -0.63607
       O    10.14334    7.96546    0.06751
      H1    10.40886    7.50170    0.86729
       H     5.00679   11.04529   -2.94728
       O     4.92121   10.90053   -3.87355
      H1     4.07783   10.43447   -4.06582
       H     3.66036    8.29838    3.15646
       O     2.98878    8.63665    2.57639
      H1     3.14760    9.59907    2.65964
       H     6.27893    2.70998   -3.18919
       O     6.18881    3.26142   -3.96226
      H1     5.78394    4.03594   -3.56510
       H     6.49494    9.45694   -6.16164
       O     7.11263    9.92566   -5.57632
      H1     6.55504   10.34831   -4.94455
       H     8.87219    3.28970   -2.22898
       O     9.17089    3.03548   -1.37852
      H1     8.49195    3.42882   -0.79896
       H     5.74053   10.82854    3.63711
       O     5.56816   10.82454    4.56927
      H1     5.18267    9.94175    4.61019
       H    10.15535   10.69677   -2.22164
       O     9.55330   10.17880   -1.64756
      H1    10.06565    9.47591   -1.11277
       H     1.38139    6.89763   -2.46744
       O     1.25956    6.31535   -1.67990
      H1     0.50829    6.70733   -1.26398
       H     2.19101   11.22931    2.83653
       O     2.94398   11.53676    2.32344
      H1     2.61057   11.72251    1.41656
       H     6.29481    7.14789   -5.24497
       O     7.29578    7.12506   -5.04049
      H1     7.55754    8.02362   -5.03898
       H     3.50507    4.65379    0.62053
       O     4.18654    5.01859    0.01264
      H1     4.39147    5.91680    0.16761
       H     7.41014    7.08056   -2.19112
       O     7.40834    6.15835   -2.43472
      H1     7.37481    6.11880   -3.40998
       H    10.91539    8.33948    3.16657
       O    10.84981    7.50196    2.73685
      H1    11.75037    7.24359    2.51884
       H     0.79874    9.94231    4.18612
       O     0.71104   10.91509    4.16218
      H1    -0.21059   11.05860    3.87786
       H    11.00018   12.31044    0.40533
       O    10.07304   12.04762    0.47438
      H1     9.90707   11.33451   -0.16948
       H     1.14855    8.07570    3.63205
       O     0.20322    8.15225    3.68208
      H1    -0.03258    7.52767    4.39462
       H     6.73959   11.67309    1.86329
       O     6.02995   10.95911    1.72895
      H1     5.43536   11.34338    1.08486
       H     3.68790   11.77354   -1.07615
       O     2.92197   12.33254   -1.14026
      H1     3.27659   13.21681   -1.31317
       H     5.73447   13.90517   -1.24310
       O     6.35298   13.29945   -0.76378
      H1     7.22616   13.67582   -0.91610
       H     4.50311    7.17480    4.73165
       O     5.11150    7.59301    4.09399
      H1     5.73372    6.82683    3.85775
       H     8.86270   12.36283    3.24722
       O     8.25505   12.25529    2.50864
      H1     8.77267   11.84344    1.81785
       H     8.45485    4.47662    2.56561
       O     8.27564    4.72045    1.67355
      H1     7.43468    4.30041    1.42203
       H    10.67002    5.81147   -3.23255
       O    10.29042    6.61477   -2.85016
      H1     9.45800    6.31441   -2.52104
       H     5.00720   13.81281    2.68907
       O     4.30439   13.72262    3.27803
      H1     3.91373   12.89510    2.96606

