135
frame 8 | Written by MDAnalysis XYZWriter (release 2.4.3)
       H    -2.78534   -8.21639   -0.21272
       O    -3.26388   -8.60495    0.53157
      H1    -3.28755   -7.84471    1.21177
       H     5.12552   -8.55377    2.95691
       O     5.15763   -7.97335    2.15340
      H1     4.27923   -7.88903    1.72470
       H     0.74186   -8.23497    1.24768
       O     0.71215   -7.94625    0.34987
      H1     1.61591   -7.69871    0.11742
       H     3.92590   -5.75891   -5.61267
       O     3.17692   -5.22629   -5.97912
      H1     3.30769   -5.36436   -6.93280
       H     4.74479   -1.40804   -2.33328
       O     4.41498   -2.05716   -2.93229
      H1     5.08668   -2.79449   -2.84368
       H    -1.05769   -7.91490   -3.03580
       O    -0.53692   -8.44405   -3.71025
      H1    -1.25710   -8.66773   -4.34704
       H     1.41457   -7.72230   -3.82245
       O     2.03049   -7.10620   -3.45202
      H1     2.94211   -7.47627   -3.57494
       H     4.25029   -8.16740    5.57137
       O     3.90928   -7.42181    6.13375
      H1     4.41907   -6.63625    5.72832
       H     7.26347   -2.69532    0.57076
       O     7.09745   -3.03153    1.49708
      H1     6.13821   -3.12503    1.48296
       H     2.05188  -10.92838   -5.50835
       O     1.22100  -10.37455   -5.69641
      H1     0.79031  -10.57085   -4.85015
       H    -0.43920   -6.07960   -5.22876
       O    -0.01949   -5.53898   -4.51958
      H1     0.84756   -5.90549   -4.33458
       H     2.39285   -6.42400    3.42965
       O     1.85256   -7.23628    3.47253
      H1     1.97875   -7.63829    4.33069
       H     0.19313   -4.94079    0.70745
       O     0.00516   -4.24193    0.03058
      H1     0.83383   -3.97370   -0.36518
       H     8.28131   -9.94375   -2.90660
       O     8.90218  -10.58041   -3.31310
      H1     9.61669   -9.99393   -3.70824
       H     6.16721   -6.36588    1.66973
       O     6.79827   -5.85941    1.15979
      H1     6.76947   -5.01783    1.56358
       H     4.49695  -10.95487    1.48721
       O     5.26565  -10.62958    1.00166
      H1     5.30724   -9.67766    1.27242
       H     2.81429  -11.87558    3.23469
       O     2.99085  -11.25295    2.50155
      H1     2.09532  -10.75479    2.33202
       H     1.98310   -1.75191   -0.79273
       O     2.57329   -2.53403   -0.90575
      H1     3.11794   -2.20214   -1.63434
       H    -0.76473  -12.37127   -4.08018
       O    -0.17770  -11.89609   -3.46852
      H1    -0.67226  -11.80225   -2.66666
       H     2.61070   -4.48381   -1.37624
       O     3.01778   -5.23411   -1.78861
      H1     2.39209   -5.71353   -2.33735
       H     5.03314   -4.63835    5.96025
       O     5.33372   -5.11119    5.18906
      H1     4.69285   -4.96042    4.45838
       H     3.92503   -4.33608    2.17183
       O     3.59825   -4.63598    3.02010
      H1     2.91772   -4.00825    3.26896
       H     1.27708  -14.83206   -1.87247
       O     1.79645  -14.12077   -1.48479
      H1     1.80997  -13.32921   -2.05844
       H     9.36820   -9.83058    0.48271
       O     9.40409  -10.79991    0.52041
      H1     8.73161  -11.08018   -0.02968
       H     4.42899  -15.18316    1.60256
       O     4.72823  -14.47568    2.18060
      H1     5.29567  -14.05207    1.53827
       H     7.39191  -14.46247    0.18735
       O     6.48147  -14.04155   -0.02217
      H1     6.65805  -13.21874   -0.51057
       H     4.17017  -11.37597   -5.65747
       O     3.42793  -11.97520   -5.78779
      H1     3.53481  -12.66381   -5.13927
       H     4.91668   -8.36574   -5.65234
       O     4.37012   -7.73565   -5.14841
      H1     3.55367   -7.65774   -5.61216
       H    -1.64905   -6.26290   -0.94800
       O    -1.41744   -7.17087   -1.20719
      H1    -0.65482   -7.29009   -0.71526
       H     2.16889   -8.41412   -7.87498
       O     1.83105   -8.05117   -6.99618
      H1     1.42240   -8.74603   -6.45221
       H     0.40606   -9.49492   -2.29390
       O     0.36547   -9.93557   -1.44370
      H1     0.66109   -9.21399   -0.82720
       H     4.94027   -4.99047   -2.46983
       O     5.83697   -4.69602   -2.70911
      H1     6.14490   -5.03829   -3.56385
       H     3.40430  -14.37039   -1.29688
       O     4.30827  -14.72538   -1.42896
      H1     4.97511  -14.38203   -0.76851
       H     4.30279  -10.28960    3.84001
       O     4.75675   -9.52950    4.22721
      H1     5.55894  -10.02031    4.56307
       H     3.63670   -8.05983   -0.39391
       O     3.30655   -7.28121    0.07920
      H1     3.35348   -6.56137   -0.59295
       H     0.26799   -9.89499    3.54054
       O     0.47907  -10.26593    2.72283
      H1    -0.35212  -10.57248    2.32813
       H     3.87785   -3.22515   -0.03376
       O     4.49874   -3.60224    0.61104
      H1     5.09749   -4.24808    0.19997
       H     9.03339   -7.47966   -0.18394
       O     8.84395   -7.77154    0.70287
      H1     8.04342   -7.33503    1.01127
       H     1.83015  -11.30571   -2.65503
       O     2.64561  -11.70443   -2.36487
      H1     2.88602  -12.25812   -3.13789
       H    -0.70654   -5.45328    3.11740
       O    -0.47602   -6.00734    2.39299
      H1     0.36278   -6.44367    2.65063
       H     6.39720  -10.78946   -6.23842
       O     5.74608  -10.35078   -5.58531
      H1     6.11634  -10.32363   -4.68302
       H     6.19258   -8.42125   -3.22937
       O     6.34868   -9.27287   -2.86479
      H1     5.50828   -9.33359   -2.38208
       H     6.33896   -5.91047   -5.79034
       O     6.79035   -5.66616   -4.98487
      H1     7.11379   -4.81387   -5.25506
       H    -2.81129  -11.77774   -0.97169
       O    -2.03941  -11.43984   -1.44667
      H1    -1.42739  -10.94363   -0.90483
       H     4.64214  -10.17331   -0.51087
       O     4.18951   -9.51621   -1.14589
      H1     3.53842  -10.03897   -1.62028

