135
frame 11 | Written by MDAnalysis XYZWriter (release 2.4.3)
       H    14.84328   -7.97150    3.76990
       O    14.18331   -7.30705    3.48441
      H1    14.59068   -6.65403    2.90336
       H    17.33950  -10.85702    0.64748
       O    17.05886  -10.23454    1.35711
      H1    16.14423  -10.52417    1.45642
       H    18.54771   -2.77171    0.65667
       O    18.25488   -3.67702    0.51110
      H1    18.29737   -4.27674    1.27887
       H    12.99661   -3.32302   -1.30666
       O    12.74432   -2.41077   -1.16907
      H1    11.98949   -2.37079   -0.51819
       H    14.26109   -7.59148    9.71792
       O    13.57275   -7.49723    9.05126
      H1    13.31220   -6.54924    8.94584
       H    17.28172  -11.06240    3.19430
       O    17.22151  -11.23729    4.17864
      H1    16.70629  -10.48253    4.55198
       H    10.00865   -4.99793    4.15944
       O    10.08608   -4.03188    4.12154
      H1    11.02956   -3.82331    3.98304
       H    12.64397   -8.74511    4.11087
       O    12.41327   -9.63079    4.39719
      H1    12.77663   -9.53003    5.31326
       H    10.72376   -4.33341    5.97934
       O    10.57698   -4.52563    6.96605
      H1    11.45283   -4.67178    7.37526
       H    13.99499  -11.07638    0.46414
       O    13.95267  -10.19881    0.82046
      H1    13.35960  -10.25886    1.53401
       H    19.10771   -6.04123    6.91929
       O    18.62004   -5.25225    6.59220
      H1    17.74305   -5.52411    6.27823
       H    16.97060   -2.42863   10.89237
       O    16.21696   -2.12858   10.36398
      H1    15.84840   -2.86171    9.87596
       H    18.26180    0.96104    0.34606
       O    17.81345    1.75958    0.01421
      H1    18.56828    2.41584   -0.12834
       H    16.61352   -8.50232    4.88042
       O    15.81955   -8.99496    4.65434
      H1    15.44475   -9.24360    5.56314
       H    12.85145   -5.77640   -1.69678
       O    13.59818   -5.26333   -1.31249
      H1    13.88575   -5.64770   -0.50322
       H    13.14501   -3.79377    2.30413
       O    12.67594   -4.34454    2.94179
      H1    13.28657   -4.57454    3.68408
       H    19.16311    1.04711    2.70206
       O    19.61895    0.30284    2.27603
      H1    19.97935   -0.22986    2.95616
       H    13.50525   -8.59009    7.43479
       O    13.39513   -9.46486    7.03976
      H1    12.78094   -9.83485    7.66283
       H    11.65187   -5.98331    2.46290
       O    10.96873   -6.66247    2.27195
      H1    11.49115   -7.57510    2.20370
       H    10.95781   -2.18675    1.46271
       O    10.64675   -2.54284    0.62665
      H1    10.20879   -3.41262    0.80800
       H    15.75724   -3.92388    3.06015
       O    16.07285   -4.54425    3.80090
      H1    16.06553   -4.00238    4.59745
       H    13.71924   -2.84177    6.51970
       O    14.50819   -3.13491    6.04189
      H1    14.52578   -2.47514    5.32264
       H    16.04374   -4.62881    8.86017
       O    15.31605   -4.41474    9.43082
      H1    15.59510   -4.69636   10.30258
       H    17.34499   -0.75528    9.03770
       O    17.75249    0.10744    8.90470
      H1    18.51118    0.16645    9.58415
       H    16.74317   -3.53997    1.06133
       O    15.72863   -3.45200    1.20402
      H1    15.36194   -3.22708    0.30321
       H    16.90475   -0.13208    4.97700
       O    16.38193    0.35524    4.33465
      H1    16.46989    1.30622    4.38907
       H    18.99007   -5.19278    2.70817
       O    18.16760   -5.58139    2.32336
      H1    17.47479   -5.28841    2.98163
       H    16.12620   -3.87166   -2.72697
       O    16.47551   -4.31552   -3.53082
      H1    15.81650   -4.99707   -3.71798
       H    15.30877   -5.27873    6.19617
       O    15.84764   -5.80007    6.75535
      H1    15.92159   -6.71558    6.47907
       H     8.13728   -6.05773    3.90829
       O     8.93903   -6.65861    4.09082
      H1     9.65000   -6.51000    3.43016
       H    10.57274   -1.29247    3.29571
       O    11.46859   -1.42850    2.92343
      H1    11.92942   -0.57846    2.93742
       H    13.89390   -6.24356    6.24426
       O    13.29938   -5.92292    5.51661
      H1    13.47886   -6.44439    4.70621
       H    16.44492   -2.78304   -0.94499
       O    15.59429   -2.73027   -1.42669
      H1    15.39362   -1.80027   -1.59393
       H    15.87004   -6.58373    0.47723
       O    15.15839   -6.00904    0.90226
      H1    15.44293   -5.10177    0.88797
       H    18.84922   -3.28031    6.70664
       O    19.05239   -2.36546    6.82605
      H1    19.64912   -2.06747    6.15281
       H    13.83334   -1.24638   -0.32569
       O    14.45988   -0.72341    0.19496
      H1    14.23544   -0.95610    1.13913
       H    18.73693   -8.37402    3.87502
       O    18.23156   -7.58240    4.20542
      H1    18.11304   -7.03482    3.43273
       H    12.85137   -2.00183    8.46767
       O    12.46526   -1.28844    7.82553
      H1    11.56257   -1.44025    7.89970
       H    17.80783   -9.37668    7.12402
       O    17.13205   -8.61219    7.29462
      H1    17.63675   -7.79835    7.30851
       H    19.16810   -6.60666    9.51129
       O    19.87775   -6.26774    8.89640
      H1    20.07461   -5.34334    9.20021
       H    15.08914   -0.81988    4.03810
       O    14.56878   -1.61466    3.87100
      H1    13.65734   -1.26671    3.93661
       H    17.76650   -7.20347   -0.28610
       O    17.05711   -7.83004   -0.42658
      H1    17.16606   -8.52526    0.20179
       H    12.36605    1.79655    3.48111
       O    12.67445    1.03061    3.94174
      H1    11.91651    0.76499    4.46873
       H    12.28795   -4.41749    9.50139
       O    12.74591   -4.38712    8.66035
      H1    13.75101   -4.48288    8.89389
       H    17.58565   -8.25762    9.18260
       O    17.86988   -7.67527    9.92809
      H1    17.08084   -7.59307   10.55994

