135
frame 3 | Written by MDAnalysis XYZWriter (release 2.4.3)
       H    -4.38811    4.90455    9.84946
       O    -4.46554    4.64600   10.75189
      H1    -4.80606    3.74668   10.76555
       H    -7.12910    0.62957   11.79823
       O    -6.56815    0.00409   11.37448
      H1    -6.41189   -0.62655   12.10799
       H    -2.54310   -2.31812   11.82249
       O    -3.39330   -1.83106   11.70078
      H1    -3.27309   -0.92690   11.47147
       H    -0.88814    3.65595   12.85926
       O    -1.53895    3.56897   13.58065
      H1    -1.02445    2.96153   14.13899
       H    -0.60651   -2.68498   17.46311
       O     0.04802   -3.21777   17.02482
      H1    -0.35622   -4.04962   16.78855
       H    -2.17150    5.72445    9.57270
       O    -2.16493    4.71403    9.56684
      H1    -2.67736    4.51241   10.39128
       H    -5.48095   -6.57584   12.59178
       O    -5.77763   -5.70695   12.25953
      H1    -6.49408   -6.02091   11.72745
       H    -8.01663   -3.67526   13.32384
       O    -7.29321   -4.00075   13.97484
      H1    -6.99278   -4.82474   13.44835
       H    -0.70755   -0.77831   13.17020
       O    -0.93416   -0.50844   12.24113
      H1    -1.66363    0.13128   12.45850
       H    -8.20959    2.33668   10.26920
       O    -8.44022    2.31295   11.21317
      H1    -9.19506    1.65269   11.35029
       H     1.52455   -4.19770    8.56677
       O     0.87581   -3.47751    8.88338
      H1     0.97093   -2.76438    8.18991
       H    -9.25261   -4.48343   12.47696
       O    -9.23460   -3.58222   12.08871
      H1    -8.50601   -3.56305   11.45154
       H    -2.29109   -6.66262    9.79133
       O    -2.62079   -7.50992   10.01578
      H1    -2.33091   -8.11047    9.29112
       H    -0.35536    1.16788   15.44651
       O    -0.54675    2.09993   15.73901
      H1    -0.67197    1.98422   16.64753
       H     2.29610   -0.16292    9.81559
       O     2.25606    0.51006    9.08214
      H1     3.18221    0.78197    8.90881
       H    -0.77951   -4.37739   12.74380
       O    -1.75143   -4.10301   12.80810
      H1    -1.77747   -3.83423   13.72494
       H    -6.16960   -0.44423    4.86617
       O    -5.63306   -1.20157    5.07926
      H1    -6.09915   -1.52493    5.83817
       H    -3.04134   -7.17755   12.21382
       O    -2.66635   -6.78935   13.01902
      H1    -2.54632   -5.81660   12.77776
       H    -7.49073    3.86049    8.98102
       O    -7.33994    2.93937    8.63106
      H1    -6.37348    2.75272    8.73783
       H     2.74336   -1.07298   13.14201
       O     2.68810   -1.75595   13.84731
      H1     3.16766   -1.41159   14.58794
       H     1.12352   -1.09735   14.47354
       O     0.26699   -0.89431   14.87645
      H1     0.03026   -1.60868   15.49897
       H     0.68474   -1.29734   11.31409
       O     1.53862   -1.51654   10.96918
      H1     1.51735   -2.26927   10.31786
       H     1.74498   -1.31187    6.97157
       O     0.83703   -1.68365    6.87542
      H1     0.27977   -0.87552    6.99288
       H    -4.87097   -1.93961   12.84393
       O    -5.75010   -1.85106   13.21156
      H1    -6.15492   -2.73629   13.32185
       H    -6.69144   -2.69391    9.64203
       O    -6.68358   -3.45391   10.22512
      H1    -6.04466   -3.19107   10.86358
       H    -5.44231    2.05076   14.84653
       O    -4.61124    1.63374   15.19823
      H1    -4.30508    2.29883   15.80506
       H    -4.66058   -7.52757    9.04198
       O    -5.22853   -8.27846    8.93002
      H1    -4.72503   -9.07516    9.11159
       H    -1.10075   -4.44751    9.24765
       O    -1.88048   -4.95400    8.96040
      H1    -2.64330   -4.35713    9.10207
       H     0.81382   -5.91467   12.47268
       O     0.80857   -5.01628   12.83955
      H1     1.52131   -5.17028   13.49512
       H    -2.49169   -4.64038    5.62234
       O    -1.61462   -4.91130    6.06974
      H1    -1.85371   -4.74109    7.02458
       H    -3.23480   -5.01039   15.65642
       O    -2.62496   -4.24898   15.69621
      H1    -2.98219   -3.71205   16.43021
       H    -1.30493   -5.50566   16.23153
       O    -0.52604   -5.94688   16.52497
      H1    -0.48899   -6.61181   15.83446
       H     0.08826    3.20383    8.37185
       O     0.55761    2.92294    9.18005
      H1     0.85884    1.99387    9.02699
       H    -0.01213    1.12134   12.52969
       O     0.34406    1.92390   12.04098
      H1     0.21436    1.74486   11.10122
       H     0.10653   -7.63675   10.50576
       O     0.62201   -6.87287   10.36858
      H1     0.31829   -6.52927    9.55604
       H    -5.64093   -1.73653   15.74394
       O    -5.56008   -1.00621   16.36213
      H1    -5.16630   -0.27544   15.88885
       H    -5.19950   -3.75705    8.55747
       O    -4.35460   -3.90760    8.08755
      H1    -4.55148   -4.50685    7.31664
       H    -2.59723   -1.93229   18.28476
       O    -3.47046   -2.37035   18.12449
      H1    -3.90517   -1.73913   17.56144
       H    -1.08749    1.60939    7.00085
       O    -0.53803    0.83127    6.93105
      H1    -0.12714    0.92930    6.02108
       H    -2.51603    2.05502   13.23771
       O    -2.85801    1.27459   12.70711
      H1    -3.36886    0.81308   13.31539
       H    -7.27880   -0.73781    8.40756
       O    -6.51171   -0.98280    8.96832
      H1    -6.59742   -0.37027    9.77553
       H     3.01170    1.59151   13.09919
       O     2.96295    0.85283   12.43948
      H1     2.12086    0.97218   11.94676
       H    -3.72463    1.91107   11.18310
       O    -4.61924    1.94495   10.64245
      H1    -5.08715    1.14836   10.96364
       H    -5.45640   -6.71762   16.36613
       O    -4.60406   -6.22194   16.35815
      H1    -4.23718   -6.28804   17.21540
       H    -5.31244    0.49865    8.02195
       O    -4.90992    1.35065    7.77622
      H1    -4.27566    1.46685    8.48178

