135
frame 4 | Written by MDAnalysis XYZWriter (release 2.4.3)
       H   -14.96333   12.79667   11.74856
       O   -15.74315   12.26322   11.93917
      H1   -16.32044   12.40520   11.15802
       H    -8.70511   15.38885   14.13181
       O    -8.14335   14.70673   13.69572
      H1    -8.78317   14.13030   13.30691
       H    -9.33185   14.20543   17.83877
       O   -10.10876   14.56454   17.43796
      H1   -10.51393   15.27758   18.02386
       H   -14.39944    9.68990    6.78679
       O   -14.04716   10.33359    7.43172
      H1   -13.35724    9.89903    7.91022
       H   -11.63067    9.11049    9.72552
       O   -11.80156    8.70208    8.88624
      H1   -12.18886    7.82897    9.10475
       H   -15.11120   12.21214   16.30931
       O   -15.16021   12.09339   15.32022
      H1   -14.86184   12.93286   14.91196
       H   -16.21501    7.77554   10.25555
       O   -15.40171    8.19406    9.90765
      H1   -15.04953    8.67891   10.66060
       H   -13.76976   14.46014   16.39970
       O   -13.94507   14.83491   15.55555
      H1   -14.26156   15.74792   15.54122
       H   -10.54633   16.96109   10.65985
       O    -9.74057   17.31053   10.24001
      H1    -9.10593   17.17250   10.97795
       H   -14.90208   16.30752    9.08919
       O   -14.15705   16.72922    9.60419
      H1   -13.85749   16.05648   10.22859
       H   -17.15074   16.63956   10.39380
       O   -17.76557   17.38474   10.11638
      H1   -18.62905   17.02546    9.79031
       H   -12.15764   17.34134   18.64084
       O   -11.83645   16.55926   18.16587
      H1   -11.44650   16.98030   17.44226
       H   -15.10376   17.91921   16.61283
       O   -14.70437   17.72198   15.77223
      H1   -13.91351   18.32078   15.69869
       H   -11.74328   10.72171   15.79198
       O   -12.47672   11.02585   16.27338
      H1   -13.11800   10.31904   16.12889
       H   -16.14000   16.80089    6.92662
       O   -16.34441   17.60489    6.41246
      H1   -16.33422   17.38577    5.44069
       H   -15.18305   10.59961   14.29396
       O   -14.95038    9.88685   13.67321
      H1   -15.76095    9.39368   13.84703
       H   -11.76374   13.51120   13.90524
       O   -12.12530   14.37410   13.66477
      H1   -12.63614   14.53567   14.48531
       H   -13.52051    8.81682   14.45782
       O   -12.92064    8.30132   15.06259
      H1   -13.43998    7.81493   15.76314
       H   -15.03626   14.93802    7.16814
       O   -15.67980   15.31116    7.79737
      H1   -16.13726   14.57648    8.22351
       H   -14.03935   10.73589   11.60753
       O   -13.64376   10.47737   10.75592
      H1   -14.18568   10.91664   10.11761
       H   -16.99135   12.97040   14.27602
       O   -17.50683   13.58149   14.83881
      H1   -17.83960   12.95019   15.54908
       H   -11.55645   15.81177   12.58000
       O   -11.56919   16.73238   12.24422
      H1   -11.72281   17.37653   13.01909
       H   -10.55735   15.63215   14.74465
       O    -9.91405   16.04753   15.29419
      H1    -9.77367   15.41228   16.01774
       H   -10.01286   11.73250   11.37755
       O   -10.40954   12.35919   11.99233
      H1   -10.92328   12.79071   11.34654
       H   -12.54898   12.49516   16.99440
       O   -12.69700   13.35277   17.46319
      H1   -11.80474   13.78324   17.38070
       H   -10.65893   15.81452    7.79573
       O    -9.99048   15.08283    7.92208
      H1    -9.47105   14.99722    7.15970
       H   -17.29456   14.51849   16.47898
       O   -17.55845   15.05258   17.27151
      H1   -17.95700   15.77082   16.77007
       H   -15.85174   18.93868   14.65705
       O   -16.23737   19.67439   14.17223
      H1   -15.51068   20.12610   13.72712
       H   -12.67646   16.99410    8.39487
       O   -12.00329   17.00217    7.73863
      H1   -11.34528   17.67351    7.97410
       H    -8.39429   18.36297   12.92208
       O    -8.89474   19.04904   13.32162
      H1    -9.80114   18.73680   13.58904
       H   -13.02092   13.97119   10.76244
       O   -13.67654   14.42555   11.31617
      H1   -13.31724   14.54467   12.19287
       H   -18.71106   14.51697   13.91862
       O   -19.01593   14.95047   13.04370
      H1   -18.56587   15.84418   13.05935
       H   -15.30719   19.74731    9.56641
       O   -14.38425   19.65588    9.87388
      H1   -14.29727   18.79445   10.28207
       H    -9.49268   18.43295    8.89257
       O    -9.74417   18.90084    8.01633
      H1    -8.89844   19.38375    7.78250
       H   -11.56921   10.17828   11.79776
       O   -11.04605    9.36545   11.76163
      H1   -10.20761    9.70070   11.42982
       H   -17.14940   14.31524   11.11418
       O   -16.51162   14.98458   10.78696
      H1   -15.60056   14.81616   11.07982
       H   -13.14176   13.49610    5.82666
       O   -13.95588   13.68308    6.40649
      H1   -14.64012   13.24818    5.87624
       H    -7.30169   16.15121    9.55907
       O    -7.34345   15.36379    9.04608
      H1    -8.28067   15.32918    8.75366
       H    -9.94231   12.51681    8.27182
       O    -9.73279   12.05779    7.43894
      H1   -10.17978   11.19278    7.41310
       H   -10.95150   18.61038   15.13927
       O   -11.57936   18.66345   14.36797
      H1   -11.69545   19.59981   14.18871
       H    -8.21321   10.45589   10.43452
       O    -9.03690   10.84140   10.01030
      H1    -8.74556   11.16689    9.16713
       H   -18.09332   17.60759   11.92690
       O   -18.30766   17.72343   12.86999
      H1   -17.49541   18.23436   13.19613
       H   -19.07271   12.47001   10.93944
       O   -18.79139   13.39529   10.78874
      H1   -18.97672   13.88555   11.60050
       H   -12.38290   13.35011    8.68027
       O   -11.99405   13.44856    9.58277
      H1   -11.57306   14.30594    9.53857
       H   -16.75352   12.78955    8.18534
       O   -15.98484   12.44007    8.61574
      H1   -15.44894   12.05052    7.89779

