135
frame 10 | Written by MDAnalysis XYZWriter (release 2.4.3)
       H    -5.04630    3.40612   -3.77056
       O    -5.60236    2.65252   -3.65798
      H1    -5.78379    2.46342   -4.59715
       H    -3.86023   -3.02480  -11.79592
       O    -3.16625   -3.49748  -11.31500
      H1    -2.34701   -3.04433  -11.61429
       H   -11.62670   -2.19621   -9.94302
       O   -11.06260   -1.36736   -9.92067
      H1   -10.97185   -1.23566  -10.85036
       H    -4.78925   -3.00595   -5.50964
       O    -4.26360   -2.49886   -6.10123
      H1    -4.45345   -2.98122   -6.92599
       H    -9.77531    6.19734   -7.32861
       O    -9.49037    5.93659   -8.18777
      H1    -9.26450    4.97941   -8.12430
       H    -4.14102   -0.59465   -6.08739
       O    -3.82826    0.25076   -6.31653
      H1    -3.02203    0.38570   -5.78997
       H    -8.89193    0.05579   -7.82360
       O    -8.75404   -0.52774   -8.52311
      H1    -9.58808   -0.71050   -8.89238
       H    -5.97199   -1.04420  -13.86160
       O    -6.58876   -0.43358  -14.31252
      H1    -6.98525    0.05965  -13.57899
       H    -0.47894   -3.48050   -8.64754
       O    -0.53423   -2.62324   -9.01360
      H1    -1.27994   -2.18991   -8.58367
       H    -0.75687   -5.72409   -9.57203
       O    -1.35180   -6.47871   -9.87014
      H1    -2.25339   -6.10490   -9.99582
       H    -7.36733   -6.07869   -9.06706
       O    -7.90820   -6.89429   -9.04642
      H1    -8.26091   -7.05094   -9.95337
       H   -13.03065    0.74065   -8.85816
       O   -13.34507   -0.07365   -9.21229
      H1   -12.51096   -0.44356   -9.48754
       H    -5.70063    2.61785   -7.27290
       O    -5.54227    2.20867   -6.39544
      H1    -4.90940    1.50119   -6.42333
       H    -2.30174   -0.95896  -15.13668
       O    -2.97789   -1.68183  -15.04870
      H1    -3.78846   -1.16389  -15.10288
       H    -9.50892   -5.65428   -7.27358
       O    -8.80434   -5.20518   -6.79035
      H1    -8.07240   -5.35091   -7.40306
       H    -5.86653   -0.00945  -10.39619
       O    -6.25489   -0.77168   -9.96461
      H1    -7.13501   -0.60933   -9.56344
       H    -1.00306    1.81996   -7.96861
       O    -0.73995    1.62627   -8.88952
      H1    -1.42258    0.98905   -9.22162
       H    -6.89950    3.32122   -8.92866
       O    -5.96831    3.17481   -8.84571
      H1    -5.48918    4.03470   -8.83198
       H    -0.80854   -2.72186   -5.75099
       O    -1.57056   -2.86910   -5.19244
      H1    -2.33261   -2.59902   -5.67454
       H    -9.46679    3.36931  -11.56075
       O    -8.72361    2.74558  -11.34920
      H1    -8.11753    2.99127  -12.01390
       H    -8.89046    2.64104   -9.12535
       O    -8.57433    3.18294   -8.38710
      H1    -8.37981    2.51648   -7.73901
       H    -6.19931   -3.08267  -12.24841
       O    -5.51054   -2.35551  -12.33570
      H1    -5.80965   -1.73102  -11.62762
       H   -10.55864   -3.00836  -13.90077
       O    -9.88706   -3.59913  -14.21352
      H1    -9.99683   -3.62434  -15.13292
       H    -9.30866    2.05143  -15.01198
       O    -8.49011    1.56050  -14.95978
      H1    -8.69893    0.72285  -15.32806
       H    -5.97592   -0.99284  -17.36738
       O    -5.67353   -0.12005  -17.04964
      H1    -6.08423   -0.08168  -16.14179
       H    -2.94341    4.84531   -9.76100
       O    -3.27833    4.83297   -8.86948
      H1    -3.79848    5.57601   -8.72971
       H    -5.53427   -4.44505   -8.47682
       O    -5.94142   -5.12744   -7.96453
      H1    -5.39157   -5.30193   -7.17443
       H    -1.74555    1.56011  -12.66714
       O    -1.18246    1.38113  -13.41743
      H1    -0.55322    0.66817  -13.04333
       H   -10.11557   -1.09338   -4.20839
       O    -9.54584   -0.83528   -4.99122
      H1    -9.52169   -1.61641   -5.53476
       H   -10.88742    1.03989  -11.92920
       O   -11.47914    0.31072  -12.21961
      H1   -12.25094    0.74649  -12.62414
       H    -7.58516   -0.94599   -4.51505
       O    -6.70151   -0.72746   -4.78213
      H1    -6.49855   -1.49414   -5.31048
       H    -1.90522    2.27081  -10.42712
       O    -2.40448    1.77158  -11.09904
      H1    -3.33476    1.99012  -11.12660
       H    -2.81755    0.16295   -8.18631
       O    -2.76300   -0.46752   -8.86860
      H1    -3.59707   -0.90169   -8.97407
       H    -3.65393   -5.05523  -10.93362
       O    -3.92285   -5.93559  -10.56169
      H1    -3.71731   -6.49420  -11.35525
       H    -9.19471   -3.69386   -6.99612
       O    -9.54727   -2.76969   -6.99246
      H1    -9.11081   -2.22585   -7.63985
       H    -0.65843   -2.35916  -11.05169
       O    -0.87401   -2.32616  -11.98230
      H1    -0.44692   -3.12854  -12.28364
       H    -8.65531   -3.71650  -12.86222
       O    -7.87434   -4.03539  -12.34165
      H1    -7.96648   -4.98587  -12.40292
       H    -5.25947   -2.12231   -9.13912
       O    -4.61351   -2.81426   -8.91855
      H1    -4.23568   -3.12425   -9.68908
       H    -4.88413   -3.83585  -13.96069
       O    -4.63926   -4.30452  -14.73423
      H1    -3.73906   -3.94615  -14.95736
       H    -4.73017   -7.30348   -9.26377
       O    -4.85856   -8.20384   -8.94649
      H1    -3.94966   -8.53617   -8.90804
       H    -5.48929    2.12847  -10.57115
       O    -5.17850    1.84490  -11.44319
      H1    -5.69115    2.32544  -12.06686
       H    -8.74127    0.79859   -5.68953
       O    -8.38950    1.61246   -6.11275
      H1    -7.43209    1.50388   -6.09603
       H    -7.40727    2.94945  -14.04875
       O    -6.74311    3.21342  -13.36740
      H1    -6.53155    4.18660  -13.50809
       H   -12.15359   -4.28244   -7.80515
       O   -12.52436   -3.52788   -7.38377
      H1   -11.76398   -2.98604   -7.13321
       H    -6.01954   -4.08561   -3.44179
       O    -5.32712   -3.90390   -4.09238
      H1    -4.60637   -3.47111   -3.57974

