135
frame 6 | Written by MDAnalysis XYZWriter (release 2.4.3)
       H    16.91880   -1.69760   12.23030
       O    16.79679   -2.22382   13.06648
      H1    16.85086   -1.55373   13.71101
       H    11.77699   -5.79963   10.02372
       O    10.95431   -5.77837   10.53829
      H1    10.63234   -4.87438   10.64859
       H     9.39789   -0.94573   16.01508
       O     9.34180   -1.82954   16.49017
      H1     8.99917   -2.50470   15.95203
       H    11.42771    3.46857   16.97160
       O    10.48848    3.55165   17.26796
      H1    10.36401    2.77798   17.85465
       H    15.85518   -2.17605   17.74488
       O    16.01292   -1.18976   17.65895
      H1    15.14191   -0.87372   17.95110
       H     7.40678   -2.25080   11.15496
       O     7.18643   -1.56893   10.49871
      H1     6.54676   -1.97490    9.86251
       H    17.70077    0.06453   15.31393
       O    17.07767   -0.66122   15.32735
      H1    16.98839   -0.96492   16.20789
       H    13.57818   -6.13211   10.27213
       O    13.22567   -6.10719    9.36386
      H1    13.44253   -5.29163    8.88954
       H    10.92482    2.50900   14.03432
       O    11.46304    1.69237   14.13326
      H1    12.14722    1.69044   13.49387
       H    14.43400    1.43753   12.99857
       O    13.69814    1.83209   12.54362
      H1    13.17386    1.16961   12.07602
       H     8.14750   -8.63400   13.74355
       O     8.71127   -7.99460   13.28241
      H1     9.00625   -8.39353   12.40630
       H    14.56802   -1.28669    8.17116
       O    15.05306   -1.57552    8.96772
      H1    15.65363   -2.26696    8.55941
       H    11.09586   -6.18925   14.51417
       O    11.36504   -6.96690   14.01577
      H1    10.50977   -7.38400   13.80002
       H    13.25487   -1.77425   13.13417
       O    12.92437   -0.89802   13.41255
      H1    12.06257   -0.92197   12.99746
       H     7.08502   -3.74323   16.63700
       O     7.05158   -3.55769   15.70635
      H1     6.90675   -4.44685   15.33885
       H    15.29094    0.30566   15.17693
       O    14.51293    0.74171   14.88559
      H1    14.08560    0.12963   14.28103
       H     5.24810   -0.98214   16.82696
       O     5.85399   -0.85350   16.06634
      H1     6.20179   -1.77021   15.95343
       H    14.59082   -7.87719   14.51150
       O    13.97059   -8.07714   13.82283
      H1    13.18909   -7.46283   13.80219
       H     8.43527   -6.32835   11.65097
       O     7.72710   -5.69556   11.55822
      H1     7.84385   -5.35051   10.64610
       H    10.78284   -9.19334   11.35954
       O    10.08844   -8.61605   11.00476
      H1    10.50690   -7.74190   10.76494
       H     9.93687   -5.20354   16.75200
       O    10.16044   -4.81021   15.90872
      H1    10.99851   -4.39235   15.91648
       H     9.03554    0.44904   13.65557
       O     8.96980    0.15177   12.73361
      H1     8.07008    0.31658   12.50570
       H     7.01690    2.14564   13.86720
       O     7.34655    3.03148   13.98781
      H1     6.56129    3.58350   14.00059
       H     6.23753   -3.08097   18.38204
       O     7.09846   -3.58905   18.33965
      H1     7.91677   -3.14387   18.51981
       H     8.62482    0.41800    8.57644
       O     8.51649    0.90210    9.39000
      H1     8.26984    0.17430    9.91452
       H    14.05520   -6.74804   12.66387
       O    14.23614   -6.16663   11.87166
      H1    14.03937   -5.26321   12.23307
       H    11.07545   -1.72084   16.44957
       O    12.06987   -1.63887   16.37827
      H1    12.25567   -0.79867   16.00919
       H     7.67861   -3.76978   12.35798
       O     7.16795   -3.05834   12.83513
      H1     7.21128   -3.41794   13.72602
       H    11.62569   -0.52264   10.58755
       O    11.50078    0.37419   10.80145
      H1    10.54896    0.54273   10.77290
       H     6.29718   -0.63555   12.32617
       O     6.25462    0.25958   12.53343
      H1     5.69407    0.35372   13.29986
       H    12.81402   -3.13381   16.17019
       O    13.09546   -4.04699   15.92750
      H1    13.49858   -4.50012   16.72761
       H    10.96465   -4.16352    7.98325
       O    10.53399   -5.08097    7.97807
      H1    10.55190   -5.36505    8.89365
       H    10.53009    4.18847   12.83791
       O     9.99586    3.93063   13.64893
      H1     9.17787    3.48526   13.36515
       H     9.25175    2.04464   19.26391
       O     9.86844    1.37753   18.97706
      H1    10.59196    1.41679   19.60975
       H     8.19364    0.10316   18.56080
       O     7.46089   -0.55865   18.48757
      H1     7.07986   -0.44512   17.57639
       H    14.23522    1.85607   16.31695
       O    13.93550    2.47739   16.96480
      H1    13.40426    3.06221   16.44380
       H     6.38400   -6.50417   14.49187
       O     7.27723   -6.29969   14.81900
      H1     7.78006   -6.76858   14.16937
       H    13.56095   -1.57009   19.48240
       O    13.41785   -0.98150   18.76322
      H1    12.84755   -1.39446   18.11195
       H    13.73022   -3.56466   14.08994
       O    13.98715   -3.46252   13.16904
      H1    14.87945   -3.10363   13.16175
       H    11.29399   -2.66190   10.57356
       O    12.11181   -2.21702   10.49362
      H1    12.73458   -2.56944   11.15311
       H    12.75745    2.12293    8.18335
       O    13.15271    1.44343    8.74232
      H1    12.49687    1.16955    9.44490
       H     8.76093    1.25819   15.85483
       O     9.29487    0.61563   15.39291
      H1    10.12339    1.08131   15.13257
       H     7.42562   -6.45115   16.69897
       O     7.24363   -6.42925   17.64035
      H1     7.13306   -5.51706   17.91585
       H     9.02396   -3.03607   10.04608
       O     9.60608   -3.35623   10.73109
      H1     9.65460   -2.80925   11.57071
       H    10.95165   -2.21051   13.96211
       O    10.42854   -2.21572   13.14160
      H1     9.76211   -1.51480   13.24304

