135
frame 10 | Written by MDAnalysis XYZWriter (release 2.4.3)
       H    -3.86023   -3.02480  -11.79592
       O    -3.16625   -3.49748  -11.31500
      H1    -2.34701   -3.04433  -11.61429
       H   -11.62670   -2.19621   -9.94302
       O   -11.06260   -1.36736   -9.92067
      H1   -10.97185   -1.23566  -10.85036
       H    -6.76673   -4.35386  -16.88021
       O    -7.41837   -4.92359  -16.50701
      H1    -8.08014   -4.37303  -16.09809
       H    -8.89193    0.05579   -7.82360
       O    -8.75404   -0.52774   -8.52311
      H1    -9.58808   -0.71050   -8.89238
       H    -5.97199   -1.04420  -13.86160
       O    -6.58876   -0.43358  -14.31252
      H1    -6.98525    0.05965  -13.57899
       H    -2.41617   -3.51995  -16.63420
       O    -1.85441   -4.11992  -16.22120
      H1    -1.54290   -3.81007  -15.34383
       H    -7.25607   -4.70150  -18.63455
       O    -7.82939   -4.44678  -19.39850
      H1    -7.62090   -5.06443  -20.09350
       H    -2.30174   -0.95896  -15.13668
       O    -2.97789   -1.68183  -15.04870
      H1    -3.78846   -1.16389  -15.10288
       H   -13.13667   -1.42536  -15.11140
       O   -12.34936   -1.40950  -14.55569
      H1   -12.49544   -0.63010  -13.99955
       H    -5.86653   -0.00945  -10.39619
       O    -6.25489   -0.77168   -9.96461
      H1    -7.13501   -0.60933   -9.56344
       H    -5.06162   -3.60838  -16.30168
       O    -5.41995   -3.32969  -17.21321
      H1    -4.69083   -3.20399  -17.81735
       H    -2.15634    0.97481  -18.87248
       O    -2.36214    0.04480  -18.96838
      H1    -2.56902   -0.19955  -19.88227
       H    -9.46679    3.36931  -11.56075
       O    -8.72361    2.74558  -11.34920
      H1    -8.11753    2.99127  -12.01390
       H    -6.19931   -3.08267  -12.24841
       O    -5.51054   -2.35551  -12.33570
      H1    -5.80965   -1.73102  -11.62762
       H   -10.55864   -3.00836  -13.90077
       O    -9.88706   -3.59913  -14.21352
      H1    -9.99683   -3.62434  -15.13292
       H    -9.30866    2.05143  -15.01198
       O    -8.49011    1.56050  -14.95978
      H1    -8.69893    0.72285  -15.32806
       H    -8.26898   -2.67274  -19.26592
       O    -8.79043   -1.84902  -19.28004
      H1    -9.69588   -2.13981  -19.45636
       H    -2.80468   -2.04127  -18.77349
       O    -3.11928   -2.94971  -18.54985
      H1    -2.74911   -3.52178  -19.24926
       H    -7.09932   -6.67390  -16.53744
       O    -7.17304   -7.48486  -16.00063
      H1    -7.99486   -7.32200  -15.53380
       H    -8.50162    0.30539  -19.45334
       O    -8.46743    1.22579  -19.73249
      H1    -8.59946    1.86361  -18.97797
       H    -5.97592   -0.99284  -17.36738
       O    -5.67353   -0.12005  -17.04964
      H1    -6.08423   -0.08168  -16.14179
       H    -5.53427   -4.44505   -8.47682
       O    -5.94142   -5.12744   -7.96453
      H1    -5.39157   -5.30193   -7.17443
       H    -4.26076    3.92449  -18.58228
       O    -3.88518    3.08035  -18.15522
      H1    -4.49468    2.34876  -18.44155
       H    -1.74555    1.56011  -12.66714
       O    -1.18246    1.38113  -13.41743
      H1    -0.55322    0.66817  -13.04333
       H   -10.15731   -7.20751  -15.31112
       O    -9.44470   -6.78271  -14.77203
      H1    -9.73446   -5.84686  -14.82386
       H   -10.88742    1.03989  -11.92920
       O   -11.47914    0.31072  -12.21961
      H1   -12.25094    0.74649  -12.62414
       H    -3.00455    5.24161  -15.69047
       O    -3.97183    5.06974  -15.71234
      H1    -4.21280    4.15911  -16.05459
       H    -1.90522    2.27081  -10.42712
       O    -2.40448    1.77158  -11.09904
      H1    -3.33476    1.99012  -11.12660
       H    -7.25549    5.47157  -16.45586
       O    -7.73799    4.76163  -15.89912
      H1    -7.92851    4.08066  -16.51288
       H    -2.81755    0.16295   -8.18631
       O    -2.76300   -0.46752   -8.86860
      H1    -3.59707   -0.90169   -8.97407
       H     0.18912    0.25779  -16.08134
       O    -0.74873    0.22138  -15.86190
      H1    -0.75865    0.74386  -15.07748
       H    -1.15437    1.55110  -17.36221
       O    -1.14057    2.39337  -17.85982
      H1    -2.01874    2.81231  -17.88503
       H     0.32548   -1.69954  -16.06560
       O     0.32905   -2.55717  -16.58271
      H1    -0.51828   -2.92762  -16.44168
       H    -3.65393   -5.05523  -10.93362
       O    -3.92285   -5.93559  -10.56169
      H1    -3.71731   -6.49420  -11.35525
       H   -10.91691   -4.34205  -17.57636
       O   -10.11245   -4.03151  -17.23788
      H1    -9.45344   -4.37458  -17.84390
       H   -10.24771   -1.37977  -17.26343
       O   -10.13192   -0.94427  -16.40147
      H1   -10.95068   -1.22227  -15.93376
       H    -5.73134    0.90359  -18.45098
       O    -5.69553    1.31897  -19.32990
      H1    -6.65323    1.47649  -19.61053
       H    -0.65843   -2.35916  -11.05169
       O    -0.87401   -2.32616  -11.98230
      H1    -0.44692   -3.12854  -12.28364
       H    -8.65531   -3.71650  -12.86222
       O    -7.87434   -4.03539  -12.34165
      H1    -7.96648   -4.98587  -12.40292
       H   -11.72193    2.08996  -16.96322
       O   -10.83131    1.72413  -16.94514
      H1   -10.79009    0.76632  -16.93270
       H    -5.25947   -2.12231   -9.13912
       O    -4.61351   -2.81426   -8.91855
      H1    -4.23568   -3.12425   -9.68908
       H    -4.88413   -3.83585  -13.96069
       O    -4.63926   -4.30452  -14.73423
      H1    -3.73906   -3.94615  -14.95736
       H    -4.99159   -5.94546  -14.40499
       O    -5.42139   -6.83114  -14.13374
      H1    -6.05497   -7.00702  -14.87528
       H    -5.48929    2.12847  -10.57115
       O    -5.17850    1.84490  -11.44319
      H1    -5.69115    2.32544  -12.06686
       H    -7.40727    2.94945  -14.04875
       O    -6.74311    3.21342  -13.36740
      H1    -6.53155    4.18660  -13.50809

