135
frame 10 | Written by MDAnalysis XYZWriter (release 2.4.3)
       H    -2.86918   10.51408    9.33595
       O    -2.30402   10.73327    8.59034
      H1    -2.49273   11.69523    8.52760
       H   -10.03515   13.69790   17.12519
       O    -9.35808   13.15689   17.41223
      H1    -9.58735   12.84165   18.30467
       H    -9.89699   11.36143   13.77656
       O    -9.90799   12.30999   14.07631
      H1    -9.02628   12.60605   13.91334
       H   -11.40743   14.82952   15.06959
       O   -11.76458   14.30605   14.30202
      H1   -11.14288   13.55464   14.10864
       H    -5.43204   15.80496   12.53194
       O    -5.77695   15.34697   13.31652
      H1    -6.61214   14.95401   13.05542
       H   -10.19431   16.66978   12.02262
       O   -10.04495   15.72390   12.14477
      H1   -10.63949   15.28665   11.48093
       H    -9.40826    7.69543   10.92254
       O   -10.02431    8.12970   11.53583
      H1    -9.50876    8.71724   12.13469
       H    -8.84687   14.36249   12.55615
       O    -8.09730   13.93724   13.06091
      H1    -7.96276   13.16910   12.44119
       H   -10.59674    9.56052   17.51564
       O   -11.48202    9.34646   17.91712
      H1   -11.63987    8.38006   17.78514
       H    -0.46093   10.54777   18.76161
       O    -0.44308   11.52590   18.53502
      H1    -0.72030   11.59508   17.59442
       H    -4.84117   14.54551   18.02895
       O    -4.47034   14.04990   17.30077
      H1    -3.71848   13.65781   17.63071
       H    -1.25024   15.29288   18.43132
       O    -1.06478   16.16067   18.11314
      H1    -0.12612   16.14901   17.86376
       H    -7.04589    9.95472   17.87870
       O    -7.56941    9.17837   17.92918
      H1    -7.95518    9.39342   18.83882
       H    -6.61012   11.78036   13.10822
       O    -7.23035   11.48858   12.39562
      H1    -6.63422   11.53799   11.59070
       H     0.19022    9.35040   11.00196
       O    -0.31385   10.18095   11.13556
      H1    -0.69950   10.45413   10.31428
       H   -10.17316   16.38240   16.30467
       O   -10.90599   15.72266   16.39146
      H1   -11.60141   16.27691   16.80999
       H    -1.80308    9.38860   12.14282
       O    -2.71731    9.17921   12.52174
      H1    -2.69844    9.55374   13.39240
       H    -8.35879   17.58227   14.94561
       O    -9.30269   17.77262   15.00613
      H1    -9.61609   18.10538   14.13123
       H    -4.75883    8.44392   10.17949
       O    -4.25751    9.29253   10.18074
      H1    -4.08853    9.42876   11.13510
       H   -10.05626    8.49046   15.85494
       O   -10.09095    7.52392   16.13880
      H1   -10.63201    7.22980   15.38493
       H    -6.70096    7.48457   15.23731
       O    -6.15866    7.86780   14.55203
      H1    -5.32391    8.12296   15.05141
       H    -1.22847   15.12579   16.62741
       O    -1.42532   14.55761   15.85248
      H1    -2.11277   15.11562   15.33765
       H    -9.57858   11.10521   15.99173
       O    -9.45687   10.21688   16.28514
      H1    -8.76441   10.14589   16.97542
       H    -8.24170   15.12960   16.82153
       O    -7.79561   15.94241   17.13844
      H1    -7.31971   16.36385   16.40509
       H    -6.65064    6.75342   11.76504
       O    -7.32142    6.52330   12.41956
      H1    -6.83316    6.71926   13.23875
       H    -3.02306   17.08185   11.56451
       O    -2.24194   17.19729   12.10302
      H1    -1.99447   18.13327   12.09194
       H     0.92540   11.58890   13.33439
       O    -0.00232   11.77181   13.31451
      H1    -0.25640   11.41324   12.45715
       H    -8.28489    8.82572   13.74901
       O    -8.87059    9.57367   13.55191
      H1    -8.23791   10.19988   13.11361
       H    -3.80796   12.02138   14.55834
       O    -3.31538   11.29185   14.93824
      H1    -2.42742   11.61115   15.08200
       H    -4.21934   15.78919   10.07473
       O    -4.63863   16.07766   10.87028
      H1    -5.20567   16.84001   10.53559
       H    -2.22056   11.78539   18.60715
       O    -3.15759   11.87957   18.77758
      H1    -3.71157   11.32007   18.16854
       H    -2.46561   19.23498   17.03203
       O    -2.68702   19.22805   16.06734
      H1    -2.62006   18.28560   15.80339
       H    -5.62830   13.60149   14.22234
       O    -5.57631   12.61818   14.35072
      H1    -5.85710   12.45131   15.25138
       H    -6.45816   16.79386   14.31108
       O    -6.73256   17.21577   15.13037
      H1    -6.04220   17.80852   15.50633
       H    -6.14796   11.97079    9.62249
       O    -5.53647   11.57464   10.22287
      H1    -5.31525   10.65104    9.96464
       H    -6.51235   14.29774   10.81583
       O    -7.08692   14.26191   10.02524
      H1    -7.89574   14.75149   10.28727
       H     0.09839   10.64255   15.60631
       O    -0.54666   11.33443   15.86043
      H1    -0.52047   11.79658   15.03783
       H    -3.01951    5.75841   14.59794
       O    -3.15716    6.16747   13.70573
      H1    -3.48890    7.08110   13.81555
       H    -2.91202   16.71459   13.71321
       O    -3.30816   16.63808   14.60336
      H1    -3.96746   15.96561   14.52219
       H    -9.68148   12.12673   10.97589
       O   -10.00848   11.97051   10.11724
      H1   -10.94227   11.82686   10.36274
       H    -5.83785   12.94586   17.07120
       O    -6.43034   12.19409   16.95547
      H1    -7.31262   12.57486   17.03286
       H    -7.42146    7.40748   17.42075
       O    -7.67566    6.70226   16.78407
      H1    -8.57186    6.93000   16.60144
       H    -3.93272    9.65197   15.61401
       O    -4.00724    8.85240   16.10232
      H1    -3.08711    8.61460   16.34672
       H    -4.63458    8.29174   17.74223
       O    -4.92102    7.72260   18.46774
      H1    -5.26688    8.32566   19.14867
       H    -6.75081   15.40604   18.68324
       O    -6.07053   14.99346   19.25895
      H1    -6.39815   14.09996   19.62734

