135
frame 0 | Written by MDAnalysis XYZWriter (release 2.4.3)
       H    -5.01980   -3.70446  -10.88101
       O    -4.72808   -4.28919  -10.12987
      H1    -4.31058   -3.66930   -9.44958
       H    -7.41606    6.27551  -17.85619
       O    -6.70459    6.19357  -17.19295
      H1    -5.84967    6.16890  -17.73150
       H    -5.95997    5.73208   -5.51779
       O    -5.63044    4.98652   -6.07275
      H1    -5.93130    4.30471   -5.42528
       H    -7.67204    5.40603   -9.16472
       O    -8.10323    6.24987   -8.88001
      H1    -8.96894    6.01401   -8.52851
       H    -9.55817   -1.87240  -10.05523
       O   -10.42376   -1.45499  -10.10274
      H1   -10.75198   -1.40253  -11.01585
       H    -5.43881   -2.34457   -5.83510
       O    -5.73363   -2.49432   -6.73802
      H1    -5.34600   -1.86226   -7.32451
       H    -7.62082    7.98752   -9.48468
       O    -7.61509    8.95535   -9.41638
      H1    -8.54676    9.21489   -9.31866
       H    -9.15269   -1.83774   -7.96269
       O    -8.82781   -2.76026   -8.21966
      H1    -7.97996   -2.69230   -8.71149
       H    -4.55515   -2.51455  -15.40142
       O    -3.70263   -2.99795  -15.70190
      H1    -3.26640   -3.04262  -14.85025
       H    -0.88250    5.58300  -14.07976
       O    -1.48374    4.93878  -14.50040
      H1    -1.45386    4.21248  -13.80198
       H    -3.98557    6.26180  -11.99229
       O    -4.30484    5.37189  -11.92743
      H1    -4.69670    5.30107  -12.79342
       H    -5.46518    4.09992  -14.72051
       O    -5.38628    5.00604  -14.48720
      H1    -4.87620    5.41516  -15.24994
       H    -6.96539    1.81106   -7.21508
       O    -7.10188    0.85297   -7.03541
      H1    -6.65057    0.65828   -6.18810
       H    -6.99106    1.13541  -11.35576
       O    -7.76032    0.58633  -11.35798
      H1    -8.52766    1.12340  -11.05658
       H    -0.52365    1.21990  -11.80487
       O    -0.20318    1.82137  -11.18988
      H1    -0.82817    2.55786  -11.26747
       H    -8.19154    3.29072   -7.80569
       O    -7.18540    3.43297   -7.72171
      H1    -6.98253    4.14647   -7.14678
       H    -5.14267    1.46294  -18.43184
       O    -5.10795    2.47990  -18.44873
      H1    -5.78545    2.79837  -17.82609
       H    -6.33633    6.87759  -14.24818
       O    -7.11535    7.45507  -14.20458
      H1    -7.13120    7.51219  -13.27313
       H   -11.86588    3.67395  -11.70490
       O   -11.26115    4.03402  -12.36901
      H1   -11.34708    4.99563  -12.17511
       H   -10.91229    3.67872   -9.48309
       O   -10.38990    3.18037   -8.86197
      H1   -10.93986    2.37982   -8.76608
       H    -7.51961   -2.63964  -10.99816
       O    -7.34466   -1.95205  -10.38564
      H1    -7.64342   -1.12925  -10.77221
       H    -7.83597   -0.47764  -12.82883
       O    -7.61443   -1.28143  -13.41739
      H1    -8.44243   -1.63507  -13.70958
       H    -0.25649   -0.54779  -13.53851
       O    -0.79367    0.16542  -13.15551
      H1    -1.54814   -0.21917  -12.64445
       H   -10.05314    3.90644  -15.75154
       O    -9.66299    3.22490  -15.13463
      H1    -9.12632    3.68274  -14.42096
       H    -1.88546    6.54031  -10.19502
       O    -2.33116    7.34677  -10.50071
      H1    -1.65110    7.84228  -11.04041
       H    -6.03232   -0.92233  -16.45025
       O    -6.28272   -1.69114  -15.88530
      H1    -6.58092   -1.19580  -15.05868
       H    -2.83569    3.03233  -12.39903
       O    -2.18181    3.35283  -11.82058
      H1    -2.68402    4.19075  -11.53026
       H    -3.25665   -1.56862  -11.61403
       O    -2.90052   -0.67909  -11.54286
      H1    -2.89093   -0.60639  -10.59826
       H    -7.77418    3.55886  -12.31855
       O    -8.51913    3.99312  -12.79206
      H1    -9.35385    3.92036  -12.31694
       H    -3.08093    7.02587  -16.24202
       O    -3.43230    6.65117  -15.39290
      H1    -2.72481    6.01185  -15.18761
       H    -4.88174    1.26176   -9.07431
       O    -4.26766    1.94839   -8.99628
      H1    -4.23271    2.29555   -9.90467
       H    -7.47814    4.53325  -16.87803
       O    -7.54121    3.56927  -16.92063
      H1    -8.27801    3.39358  -16.26076
       H    -2.36581   -0.45368   -7.81621
       O    -2.00073   -0.93848   -8.58408
      H1    -2.53350   -1.74928   -8.60409
       H    -0.29736    0.14981  -16.32721
       O    -0.81092    0.81239  -15.83750
      H1    -0.69371    0.54477  -14.88327
       H    -2.78507    1.19614  -15.81257
       O    -3.58498    1.71519  -15.73605
      H1    -3.93724    1.62313  -16.62082
       H    -5.57764    4.79378  -10.50097
       O    -6.41943    4.39421  -10.22313
      H1    -6.27625    4.00850   -9.32344
       H    -8.32425    6.01913  -12.47822
       O    -8.60258    6.82724  -11.87357
      H1    -8.33419    6.49760  -11.02243
       H   -10.08798    0.02287  -15.31111
       O   -10.52826    0.64944  -14.71446
      H1   -10.00642    1.44499  -14.93230
       H    -2.86584    8.84645  -13.01458
       O    -3.70947    8.52295  -13.35971
      H1    -3.48806    7.89755  -14.11896
       H    -6.20404   -0.07762   -8.45962
       O    -5.48091   -0.60148   -8.90620
      H1    -6.00034   -1.15228   -9.49679
       H    -6.40262   -2.78340  -13.09080
       O    -5.70496   -3.39134  -12.76893
      H1    -5.97703   -4.27670  -13.16677
       H    -2.26310    4.87640   -7.35375
       O    -2.40063    4.49289   -8.26017
      H1    -2.93287    3.70981   -8.04294
       H    -6.15653    3.16131  -11.38874
       O    -5.74443    2.47072  -11.98432
      H1    -6.16481    2.48542  -12.88080
       H    -6.76525    2.82623  -15.53843
       O    -6.33544    2.43490  -14.74469
      H1    -5.61952    2.02542  -15.22503
       H    -1.91327    0.70915   -6.30451
       O    -2.85200    0.59823   -6.58152
      H1    -3.21355    1.17231   -7.28141

