135
frame 8 | Written by MDAnalysis XYZWriter (release 2.4.3)
       H   -12.02441   10.63675    3.64991
       O   -12.67313   11.11823    4.19485
      H1   -13.17363   11.70859    3.55867
       H   -16.06432    5.03578    7.12766
       O   -15.75236    4.20239    6.78596
      H1   -14.77446    4.22387    6.90369
       H    -8.43741    7.59424    6.93277
       O    -7.62802    7.20826    6.75331
      H1    -7.80722    6.26761    6.53142
       H   -13.05699    9.60741    7.02483
       O   -12.32158    9.37062    7.59927
      H1   -12.40688    8.48397    7.86768
       H   -11.86390    6.29589    8.85633
       O   -12.12189    5.87860    8.02858
      H1   -11.33622    6.03299    7.47947
       H   -14.35639    2.40856   10.34842
       O   -13.57532    2.39898    9.85392
      H1   -13.34560    1.49563    9.72479
       H   -14.85472    8.42392   10.58192
       O   -14.66543    9.28623   10.25650
      H1   -15.33893    9.81207   10.76857
       H    -9.79043    6.14480    4.35709
       O    -9.29827    5.99298    3.50233
      H1    -8.40718    5.69512    3.76075
       H    -9.96110    3.75219    6.59096
       O    -9.28661    3.13308    6.76290
      H1    -8.71639    3.62287    7.34880
       H    -6.48951    4.99556    0.98163
       O    -6.40818    4.46851    0.15738
      H1    -6.85359    3.60874    0.23509
       H   -16.25385    5.42557    3.93513
       O   -16.75032    4.67095    4.20150
      H1   -16.31915    4.31186    5.01303
       H    -8.40901    9.07681   10.36371
       O    -8.44088    9.92715   10.85028
      H1    -8.28006    9.66936   11.76342
       H   -11.11802    9.65128    6.06957
       O   -10.35455    9.26519    5.63923
      H1   -10.48316    9.52899    4.71217
       H    -8.79900    7.79540    1.50980
       O    -9.45129    8.09304    0.80906
      H1    -9.05391    8.83091    0.46377
       H    -8.74637   12.73760    2.83863
       O    -8.52429   11.86500    2.54058
      H1    -8.91439   11.75482    1.69334
       H    -8.79355    3.25582   10.04038
       O    -9.15389    2.52211   10.60297
      H1    -9.98445    2.93753   10.93648
       H    -6.71153    8.65269    3.34331
       O    -7.15705    8.99256    2.54608
      H1    -6.86915    9.87564    2.45403
       H   -10.60950    7.55348    5.57460
       O   -10.75443    6.51983    5.69152
      H1   -11.69776    6.25571    5.58303
       H    -7.80301    3.64571    5.83755
       O    -7.47564    4.39283    5.35931
      H1    -6.49208    4.20038    5.19218
       H    -7.98467    5.78209    9.03242
       O    -8.14399    4.93277    8.59181
      H1    -7.22140    4.82438    8.21889
       H   -11.95315    4.47492    2.23897
       O   -12.62814    5.11194    2.10457
      H1   -13.33752    4.65283    1.66803
       H    -9.95808    1.53531    6.71999
       O   -10.22439    0.65875    6.38552
      H1   -11.11533    0.38541    6.73826
       H    -5.12364    7.67541    5.10835
       O    -5.98306    7.90557    4.74782
      H1    -6.58458    7.72274    5.45207
       H    -5.02577    4.95032    8.60537
       O    -5.39072    5.62784    8.00235
      H1    -4.91716    5.47989    7.19020
       H   -12.43822    3.43698   11.10150
       O   -11.65042    3.60910   11.63739
      H1   -12.02792    3.84999   12.47019
       H    -7.30205    1.22485    4.26196
       O    -7.54629    0.84734    3.42809
      H1    -8.45890    0.98820    3.27423
       H   -11.80346   12.58531    5.54569
       O   -11.07913   13.07720    5.86472
      H1   -10.42029   12.43459    6.15411
       H   -10.69862    3.64112    0.87127
       O   -10.82836    3.31870   -0.05390
      H1   -11.77903    3.37320   -0.24077
       H    -4.79828    7.98696    8.32681
       O    -5.53986    8.52315    8.32417
      H1    -6.22246    7.92241    8.01806
       H    -9.83291   10.59059    2.87369
       O   -10.60343   10.00635    2.76119
      H1   -10.15640    9.39644    2.14097
       H   -12.97168    5.18644    3.86488
       O   -13.08307    5.42129    4.81691
      H1   -13.23152    4.58315    5.20620
       H    -8.68210    6.45906   11.10126
       O    -8.20039    6.95616   10.44419
      H1    -7.30674    7.05291   10.70395
       H   -12.18409    8.71997   10.67283
       O   -11.71931    8.05375   10.09781
      H1   -10.86336    7.93736   10.58545
       H   -13.47963    7.38260    1.87713
       O   -14.23482    7.99326    2.07952
      H1   -15.04250    7.57048    1.72957
       H   -14.40568    6.75287    4.84960
       O   -15.19348    7.31563    4.76257
      H1   -15.04451    7.77469    3.93399
       H   -10.15886    4.15106    3.16062
       O   -10.77251    3.51530    2.74537
      H1   -10.41881    2.64492    2.82792
       H   -14.81062    9.02415    5.53231
       O   -14.52145    9.92192    5.72453
      H1   -13.86968   10.17898    5.03286
       H    -9.54360   11.63626    8.13056
       O    -9.11358   11.67716    7.21417
      H1    -9.41202   10.85663    6.86133
       H    -4.95004    4.64524    3.67346
       O    -4.78878    4.13453    4.51030
      H1    -4.65048    3.20131    4.25223
       H    -9.33053   11.31618   10.21260
       O    -9.95545   11.98148    9.79371
      H1   -10.80752   11.60227    9.93979
       H    -6.28930   10.31217    7.59286
       O    -6.53411   11.21083    7.47669
      H1    -7.50752   11.13157    7.23727
       H    -4.85331    7.03891    2.69633
       O    -5.36687    6.24874    2.59292
      H1    -5.95638    6.50090    3.31603
       H   -11.80006    5.94634    0.37767
       O   -11.41908    6.59964   -0.19674
      H1   -10.70230    7.08032    0.31974
       H   -12.78010    4.39424    7.54424
       O   -13.14373    3.60937    7.09480
      H1   -13.08880    2.92167    7.81090
       H   -13.04229   12.29692    9.95728
       O   -12.74518   11.52197   10.42331
      H1   -13.08491   10.81937    9.81357

