135
frame 5 | Written by MDAnalysis XYZWriter (release 2.4.3)
       H   -10.88766  -17.02975   -8.86127
       O   -10.26791  -16.71832   -9.53244
      H1    -9.65534  -17.45930   -9.60964
       H    -9.34872  -18.83717   -6.73395
       O    -9.20347  -19.16780   -5.84071
      H1   -10.08750  -19.45680   -5.55555
       H    -1.90918  -17.84689  -11.21929
       O    -2.53174  -17.40076  -10.66458
      H1    -2.60192  -16.50017  -10.98654
       H   -10.66809  -16.22386   -3.63764
       O   -10.45509  -15.94147   -4.53548
      H1    -9.49896  -16.08844   -4.81834
       H    -3.84458  -20.03980  -13.71656
       O    -4.10968  -19.09844  -13.84366
      H1    -4.65775  -18.98697  -13.06952
       H   -10.60829  -15.48679  -16.49122
       O   -11.18385  -15.03350  -15.86659
      H1   -10.59525  -14.54043  -15.32768
       H    -7.17959  -16.60754  -13.95399
       O    -7.48489  -16.95425  -13.13673
      H1    -6.76938  -17.58646  -12.89444
       H   -11.51811  -15.24524  -11.96036
       O   -11.11911  -14.52627  -11.42721
      H1   -10.49865  -14.94754  -10.81827
       H    -3.68811  -17.48384   -3.92282
       O    -2.79998  -17.67833   -4.10021
      H1    -2.45086  -16.98790   -4.64826
       H    -2.97012  -17.39190  -13.72828
       O    -2.52870  -16.53890  -13.89439
      H1    -1.86854  -16.41995  -13.22340
       H   -14.77922  -17.70289   -7.90229
       O   -14.23070  -18.50279   -7.78498
      H1   -14.06544  -18.77003   -8.69852
       H    -9.55501  -13.50301  -12.70531
       O    -8.68354  -13.03446  -12.53602
      H1    -7.97920  -13.67671  -12.20176
       H    -6.83014  -15.55290  -12.26030
       O    -6.84181  -14.73496  -11.72123
      H1    -6.05994  -14.27162  -11.97570
       H   -10.47926  -11.86046   -9.88064
       O   -10.52589  -11.60460   -8.98100
      H1   -10.28992  -12.41554   -8.46265
       H   -12.48352  -16.79985  -13.51969
       O   -11.64894  -16.29933  -13.46845
      H1   -11.42239  -15.92461  -14.32885
       H   -10.80800  -14.93281   -7.31960
       O   -10.52326  -14.07064   -7.36112
      H1   -10.12591  -13.85918   -6.48266
       H    -5.78500  -18.60333   -2.17869
       O    -6.59089  -18.80786   -1.64588
      H1    -7.06925  -17.92708   -1.68673
       H    -8.21502  -17.46963   -5.35647
       O    -7.90179  -16.58119   -5.21616
      H1    -7.40454  -16.35193   -6.03068
       H    -4.69227  -15.65746  -14.61777
       O    -5.62577  -15.77973  -14.64422
      H1    -6.02042  -15.07830  -15.15163
       H    -5.49758  -16.04151   -7.06286
       O    -6.22386  -16.57746   -7.50355
      H1    -6.73684  -15.86196   -7.95599
       H    -9.72670  -19.22455   -0.14932
       O    -9.84576  -18.85131   -1.11168
      H1   -10.73369  -19.13812   -1.43698
       H    -9.88044  -19.32974   -9.48665
       O    -9.07380  -19.22980   -8.90587
      H1    -8.53817  -20.02553   -9.14833
       H    -5.61444  -18.50764  -10.97821
       O    -6.02546  -18.79691  -11.91161
      H1    -6.66407  -19.48755  -11.62499
       H    -9.99525  -13.97416   -4.68421
       O    -9.57830  -13.26920   -5.09003
      H1   -10.17971  -12.53368   -4.93325
       H    -4.23223  -14.14360   -7.26919
       O    -4.26880  -14.79204   -6.55808
      H1    -4.54279  -14.18947   -5.82277
       H    -3.77001  -14.60367  -12.20220
       O    -3.26418  -14.70869  -11.30813
      H1    -3.66702  -14.21204  -10.57589
       H    -6.14818  -16.62185   -4.38341
       O    -5.29513  -16.61355   -3.97363
      H1    -5.12670  -15.70259   -3.97627
       H    -2.67232  -15.53951   -6.42662
       O    -1.89596  -16.14947   -6.26824
      H1    -1.26458  -16.02106   -7.03495
       H   -11.38631  -11.32357  -12.56137
       O   -11.82535  -11.77814  -11.77522
      H1   -11.44312  -12.66158  -11.44568
       H    -3.46493  -12.48084   -8.39272
       O    -4.05777  -13.15573   -8.68216
      H1    -4.74823  -12.65713   -9.07607
       H   -12.51985  -19.23501  -10.59458
       O   -13.45162  -19.03406  -10.48012
      H1   -13.53350  -18.37832  -11.17576
       H    -7.25110  -14.93261   -9.86399
       O    -7.85080  -14.86376   -9.08077
      H1    -8.73455  -15.26296   -9.27986
       H   -10.62116  -17.86873  -13.15945
       O    -9.81314  -18.36970  -13.03861
      H1    -9.21692  -17.67927  -12.72758
       H   -12.41472  -16.67694   -7.03189
       O   -11.50788  -16.84387   -6.93519
      H1   -11.29072  -16.47983   -6.03612
       H   -14.51323  -19.24853   -4.86922
       O   -14.07134  -18.39462   -5.11373
      H1   -13.81634  -18.43542   -6.08543
       H    -9.17310  -17.41275   -1.59053
       O    -8.54408  -16.70653   -1.88313
      H1    -8.44326  -16.92718   -2.83199
       H    -6.31604  -12.41821   -5.77942
       O    -5.77212  -11.81991   -6.29072
      H1    -6.18854  -10.98904   -6.05809
       H   -14.21549  -18.27238  -14.27439
       O   -14.16955  -17.68760  -13.48251
      H1   -14.34170  -16.77235  -13.82756
       H   -12.53188  -17.39690   -1.68483
       O   -12.01786  -17.21091   -2.46881
      H1   -12.15236  -17.99250   -3.01263
       H    -4.24321  -17.79812   -9.88511
       O    -5.02305  -18.13372   -9.46357
      H1    -5.37334  -17.49900   -8.82721
       H   -15.05377  -15.34933   -3.59613
       O   -15.70522  -15.53291   -4.33508
      H1   -15.39724  -16.43097   -4.64969
       H    -6.99733  -12.88790   -9.42465
       O    -6.84867  -11.94329   -9.58987
      H1    -7.34769  -11.49133   -8.84529
       H   -13.19607  -14.09720   -9.62755
       O   -14.06237  -13.92255   -9.32451
      H1   -14.07788  -14.41933   -8.49343
       H   -13.20174  -14.13825   -3.62025
       O   -13.33957  -14.70197   -2.84448
      H1   -13.12878  -15.58194   -3.20827
       H   -14.88845  -15.38995   -7.08913
       O   -13.89173  -15.56863   -6.98251
      H1   -13.62582  -14.83741   -6.42306

