135
frame 6 | Written by MDAnalysis XYZWriter (release 2.4.3)
       H    -4.72059  -16.29601   11.10561
       O    -4.50968  -16.14806   10.19711
      H1    -4.26693  -16.99112    9.89067
       H    -1.88040  -18.09283   17.36665
       O    -1.46928  -18.89869   16.99314
      H1    -0.62683  -18.96186   17.46328
       H   -10.01020  -18.83260   18.31873
       O   -10.45814  -19.63072   18.12216
      H1   -10.03136  -20.04709   17.31486
       H   -11.37299  -13.86530   13.20389
       O   -11.74543  -14.44415   12.55842
      H1   -12.69126  -14.32402   12.51386
       H   -10.29138  -10.31867   16.74607
       O   -11.02052  -10.37764   17.40631
      H1   -11.28044   -9.49208   17.56664
       H    -9.53261  -11.69597   19.77792
       O   -10.47513  -11.70538   19.50417
      H1   -10.56820  -11.16016   18.73885
       H    -5.57643  -17.33996   13.23184
       O    -4.87345  -16.74284   12.89349
      H1    -4.06142  -17.01197   13.33447
       H    -5.16802  -16.75012   17.70264
       O    -5.23949  -16.50174   16.77721
      H1    -6.16629  -16.63181   16.52110
       H   -13.43300  -10.73377   15.19006
       O   -12.91624  -11.39216   15.72401
      H1   -12.32389  -10.92608   16.34185
       H   -10.50797  -14.77134   19.55753
       O   -10.90551  -14.30997   18.79912
      H1   -10.94101  -13.36722   19.06947
       H    -9.49990   -8.81021   15.95478
       O    -9.14060   -9.62522   15.69796
      H1    -8.95251   -9.56854   14.75830
       H    -8.15149  -14.28064   16.13225
       O    -7.53757  -14.97762   15.83703
      H1    -7.03836  -14.59737   15.14037
       H    -7.59348  -13.17748   11.21481
       O    -6.71528  -13.54052   11.22983
      H1    -6.36593  -13.17819   10.44277
       H    -5.90142  -18.92723   14.77679
       O    -6.51526  -18.43813   14.20501
      H1    -6.89915  -19.05246   13.55517
       H    -6.25717  -14.15576   12.90351
       O    -5.73353  -14.36882   13.67636
      H1    -5.22223  -15.25163   13.49694
       H    -2.72003  -14.51632   15.17109
       O    -3.24909  -14.89715   15.93576
      H1    -4.17769  -14.70258   15.78562
       H    -3.39466  -12.13915   19.40940
       O    -4.16092  -11.54163   19.48090
      H1    -4.35184  -11.28972   18.53989
       H   -11.56847  -12.02077   14.82212
       O   -10.86810  -12.25450   14.23949
      H1   -10.82895  -11.48721   13.72858
       H    -1.69848  -16.29003   18.69357
       O    -2.52369  -16.52859   18.22816
      H1    -2.58091  -15.80975   17.53838
       H   -13.08356  -14.42291   18.35172
       O   -13.86557  -14.40549   17.77817
      H1   -13.96638  -15.29096   17.48295
       H    -6.42682   -7.87018   15.30025
       O    -6.33819   -7.17074   14.62482
      H1    -6.89718   -7.46214   13.88212
       H    -2.92193  -10.95463   14.27760
       O    -2.71949  -11.12292   15.22037
      H1    -1.94576  -11.70774   15.16321
       H    -5.18872  -12.02357   17.12778
       O    -4.76995  -11.12643   17.06965
      H1    -4.07025  -11.22971   16.38895
       H     0.37183  -10.89191   17.21706
       O     0.21558  -10.52024   16.29451
      H1    -0.37668   -9.82838   16.57967
       H    -6.51299   -7.04383   18.89261
       O    -6.83371   -7.94011   19.09497
      H1    -6.89120   -8.34295   18.26056
       H    -8.46104  -16.34178   15.71181
       O    -9.08598  -17.09251   15.43970
      H1    -8.56643  -17.60929   14.87265
       H    -3.84353  -11.31521   11.73536
       O    -3.28760  -11.81023   12.37176
      H1    -3.08256  -12.68416   11.97033
       H    -4.16446  -19.66009   17.20813
       O    -4.57603  -19.50913   18.05017
      H1    -4.02178  -20.00917   18.69187
       H     0.47555  -16.17910   19.82556
       O    -0.09049  -15.82703   19.15292
      H1     0.36525  -16.27913   18.42087
       H    -5.25354  -11.04546   13.61561
       O    -5.52401  -10.14721   13.74051
      H1    -5.83718  -10.10115   14.61705
       H   -10.05627  -13.38784   15.69033
       O    -9.67512  -13.43083   16.57905
      H1   -10.44187  -13.66754   17.19073
       H   -11.59035  -15.81968   14.01084
       O   -11.55368  -16.51655   14.61178
      H1   -10.69023  -16.52391   14.90847
       H    -1.54017  -13.26225   13.56109
       O    -1.93409  -14.15979   13.61235
      H1    -1.85558  -14.60515   12.75646
       H    -6.13337   -9.84774   16.59695
       O    -6.69855   -9.06917   16.53586
      H1    -7.57148   -9.43254   16.34704
       H    -9.79474  -17.05906   19.50613
       O    -9.44944  -17.26822   18.60803
      H1    -9.89765  -16.73013   17.92667
       H    -6.31530  -18.57512   11.52056
       O    -6.88938  -19.30776   11.34958
      H1    -6.42387  -19.96694   10.86717
       H   -14.50660  -17.72134   15.72242
       O   -13.61829  -17.82166   16.08042
      H1   -12.99841  -17.27316   15.49376
       H     0.78408  -14.79459   15.41595
       O     0.20404  -15.50893   15.07618
      H1    -0.49812  -15.01755   14.54989
       H    -4.38064   -8.80206   13.09368
       O    -3.73200   -8.20173   12.73242
      H1    -3.55997   -7.52131   13.38323
       H     1.64629  -17.69465   17.27881
       O     1.57254  -16.78034   17.20984
      H1     0.92211  -16.68828   16.50442
       H    -6.05847  -13.39784   18.97676
       O    -6.03787  -13.56198   18.05500
      H1    -6.33431  -14.44562   18.00653
       H    -6.09820  -18.07277   18.77167
       O    -6.71977  -17.70996   19.40287
      H1    -7.53187  -17.48127   18.95281
       H    -3.11174  -16.81210   15.13349
       O    -2.80922  -17.47476   14.46041
      H1    -1.85968  -17.44629   14.46060
       H    -8.66354  -11.76554   17.66389
       O    -7.80155  -11.43620   17.98933
      H1    -7.29533  -12.27487   17.92639
       H     1.08655  -12.59551   17.92617
       O     0.75371  -11.92301   18.52145
      H1     1.48280  -11.75690   19.14602

