135
frame 1 | Written by MDAnalysis XYZWriter (release 2.4.3)
       H    11.32221   10.71243  -14.71022
       O    11.49651   11.57620  -14.44767
      H1    12.35647   11.78627  -13.96282
       H    12.76531    2.65091  -17.52623
       O    13.61649    3.16600  -17.60052
      H1    14.30255    2.50472  -17.65622
       H    15.11202   14.63878  -15.57576
       O    15.28546   14.62599  -14.60923
      H1    14.93804   13.73238  -14.36883
       H    19.92114    5.76640  -10.90915
       O    19.30871    6.42842  -11.14313
      H1    18.43630    5.93871  -11.19317
       H    16.05845   12.99862  -11.07247
       O    16.97963   12.71618  -10.91858
      H1    17.09525   12.97860   -9.99160
       H    14.75709    9.42863   -8.50333
       O    14.51661    9.61054   -9.40208
      H1    13.73441    9.07891   -9.59665
       H    17.78091   14.84391  -18.43778
       O    17.70409   13.96729  -18.06189
      H1    18.60336   13.83631  -17.77961
       H    18.25373    4.20131  -17.38359
       O    18.16624    3.59832  -18.07994
      H1    18.76947    2.88859  -17.82342
       H    11.09816    8.33823  -15.84655
       O    12.00166    8.40101  -16.15396
      H1    11.99917    8.25663  -17.10644
       H    12.48109    5.02399  -14.85305
       O    12.68598    4.45535  -14.12776
      H1    12.97645    5.03811  -13.45204
       H    19.13302   10.45037   -9.31748
       O    19.42102    9.83572   -9.99978
      H1    18.58810    9.42937  -10.31118
       H    16.98844   13.59354  -15.16364
       O    17.94522   13.42069  -15.12164
      H1    18.06894   12.76420  -14.40127
       H    18.73170    0.63826  -13.69571
       O    18.83025   -0.08794  -14.28177
      H1    19.38461    0.17973  -15.03959
       H    16.88884    8.06785  -16.37397
       O    17.70580    8.17004  -16.83326
      H1    18.04644    7.28460  -16.81735
       H    16.79754   10.97026  -17.82512
       O    15.82917   11.14577  -17.84511
      H1    15.70918   12.12066  -17.76973
       H     9.67460    6.21254  -18.49382
       O    10.37617    6.06522  -17.75489
      H1    11.18400    5.97845  -18.23507
       H    12.07767    9.60304  -12.21403
       O    11.59332    9.81499  -11.40358
      H1    11.00358    9.10812  -11.16029
       H    13.93659    9.81433  -15.49119
       O    14.72887   10.42133  -15.50774
      H1    14.92844   10.43257  -16.43205
       H    18.43077    9.49033  -17.62858
       O    18.59783   10.41846  -17.98740
      H1    19.58471   10.48975  -18.11914
       H    15.80331   16.80139  -18.44511
       O    16.19958   16.04923  -18.91689
      H1    15.83970   15.26931  -18.57641
       H    14.71257   11.73487  -13.92126
       O    14.17050   12.38957  -13.54822
      H1    14.30927   12.39955  -12.61320
       H    13.56921    4.80181  -18.14924
       O    13.57511    5.79421  -18.02542
      H1    13.92816    6.23493  -18.78135
       H    17.25126    2.82791  -11.86803
       O    16.34280    3.12661  -11.73680
      H1    16.34857    4.08634  -11.88897
       H    19.41220    7.51895  -14.18162
       O    19.18048    6.72105  -13.74944
      H1    19.14190    6.86523  -12.77976
       H    13.01827    8.27368  -13.11697
       O    13.28910    9.16892  -13.27946
      H1    14.24768    9.08027  -13.22339
       H    15.96761    5.69830  -15.06117
       O    16.63897    5.10244  -14.61102
      H1    16.10546    4.27642  -14.76037
       H    14.80372    2.30953  -12.23919
       O    13.99513    1.74832  -12.37005
      H1    13.58037    2.08040  -13.17848
       H    16.99707    0.56969  -18.38042
       O    17.66611   -0.09627  -18.36766
      H1    18.21551   -0.15249  -19.15786
       H    11.50269    6.56615  -12.60773
       O    12.45038    6.52000  -12.38533
      H1    12.68201    6.99071  -11.56195
       H    14.05587    3.38958  -15.52928
       O    14.92702    3.16848  -15.15242
      H1    15.16912    2.41449  -15.69689
       H    17.02134    7.77576   -9.80600
       O    17.05260    8.46767  -10.50889
      H1    16.16336    8.86882  -10.28006
       H    12.34042   11.92493  -17.72513
       O    12.50249   11.44015  -18.54048
      H1    13.05338   10.71590  -18.24572
       H    19.10970   16.01852  -13.52894
       O    18.12033   15.78461  -13.64017
      H1    18.14251   14.99872  -14.22937
       H    18.24313    5.62908  -15.61449
       O    18.56308    5.68350  -16.55079
      H1    19.53486    5.95306  -16.48261
       H    14.51550    6.76460  -16.67887
       O    15.21770    7.05121  -16.05677
      H1    14.75574    7.68049  -15.48807
       H    15.42401    3.48953   -8.56717
       O    16.24328    3.94497   -8.97612
      H1    16.05631    3.89302   -9.94096
       H    19.18024   11.09671  -12.48997
       O    18.57611   11.73605  -12.98020
      H1    18.01453   12.07340  -12.24442
       H    11.33943    9.27825  -19.33034
       O    11.97427    8.55673  -19.16870
      H1    12.52737    8.61341  -19.92931
       H    10.65918   13.14808  -17.06578
       O    11.53980   12.97935  -16.76099
      H1    11.49150   12.53843  -15.87539
       H    16.79043    6.91715  -11.66965
       O    16.76437    5.98284  -11.92430
      H1    16.93969    5.88981  -12.82170
       H    18.11344    9.50874  -15.38345
       O    18.91267    9.50554  -14.80173
      H1    18.86177   10.42474  -14.44750
       H    17.15563    9.17847  -13.74098
       O    16.19864    9.14358  -13.68056
      H1    15.89038    9.64594  -14.44990
       H    16.51357    2.40461  -18.29038
       O    15.89978    1.69249  -18.03284
      H1    15.42106    1.44631  -18.85242
       H    18.60999    2.69936  -13.69262
       O    18.78787    2.17126  -12.88589
      H1    19.70693    2.04364  -12.83067
       H    14.50281   13.87435  -18.03456
       O    15.09988   13.71846  -17.29323
      H1    16.01431   13.84394  -17.53754

