135
frame 8 | Written by MDAnalysis XYZWriter (release 2.4.3)
       H     7.74155   -8.36354  -12.41110
       O     7.31310   -9.17662  -12.09085
      H1     7.84362   -9.91408  -12.35676
       H    11.74360   -9.91224  -11.61782
       O    11.43109   -8.99096  -11.40220
      H1    12.04271   -8.34078  -11.71804
       H     9.77711  -20.29427  -15.42742
       O    10.11846  -19.76783  -14.76001
      H1    10.16587  -18.85953  -15.23964
       H     5.06523  -16.70885  -16.72670
       O     5.21243  -15.74428  -16.84892
      H1     6.09804  -15.58780  -16.59079
       H     5.78349  -13.58951  -12.89172
       O     4.85259  -13.43039  -13.04591
      H1     4.80504  -12.51588  -13.37686
       H    15.19807  -13.38841  -16.01702
       O    14.88745  -14.11797  -15.54339
      H1    15.52523  -14.41351  -14.88883
       H     8.60761  -17.73472   -9.21252
       O     8.42331  -16.76926   -9.06212
      H1     7.63086  -16.68475   -9.57444
       H     9.51071  -14.57405  -18.76148
       O     9.46470  -14.00974  -17.98667
      H1     8.75061  -13.38573  -18.13134
       H    12.58038  -16.68505  -15.64906
       O    12.56834  -17.20806  -16.42697
      H1    13.21147  -17.89845  -16.32833
       H    10.06681  -10.01455  -14.38548
       O    10.24608   -9.49267  -15.20141
      H1     9.76141   -8.66250  -15.12115
       H     5.06089  -13.89042   -8.70070
       O     5.41379  -13.73635   -7.78783
      H1     4.67028  -13.70753   -7.16806
       H    11.39237  -13.42244   -9.85608
       O    10.45695  -12.99973   -9.94541
      H1    10.07817  -13.73844  -10.47956
       H    13.67320  -11.92120   -8.41800
       O    13.88924  -11.24236   -7.72604
      H1    14.77800  -11.64388   -7.59879
       H     6.76036  -15.08552   -7.34407
       O     7.29848  -15.67314   -6.82386
      H1     7.56236  -16.25738   -7.47895
       H    12.79427  -19.86251   -8.67576
       O    13.54668  -19.34848   -9.08524
      H1    13.23793  -18.43965   -9.08128
       H    14.28443  -12.13241  -11.27066
       O    15.24960  -12.24566  -11.32164
      H1    15.41392  -13.18231  -11.45749
       H     8.93428  -19.44845   -7.73465
       O     9.55235  -19.16875   -8.44773
      H1    10.10361  -19.94021   -8.51101
       H    10.10251  -17.48943   -7.17041
       O    10.78993  -16.83043   -6.88623
      H1    10.30619  -16.12564   -6.52201
       H    11.03456  -13.46966  -17.69070
       O    11.84977  -13.09759  -17.41898
      H1    12.57475  -13.64578  -17.69649
       H    14.53547  -18.67496  -11.33270
       O    14.67520  -17.74508  -11.54625
      H1    14.13499  -17.63185  -12.33111
       H     8.62404  -11.93600   -7.49498
       O     9.54213  -12.24519   -7.23102
      H1     9.85637  -12.62078   -8.04760
       H    13.57826  -16.09349   -8.53937
       O    12.77064  -16.32880   -8.95404
      H1    12.05566  -16.36836   -8.29242
       H     7.44527  -18.75516  -16.10106
       O     7.07642  -19.56430  -15.81231
      H1     6.84796  -20.04547  -16.61465
       H     9.94675  -15.52303  -11.90512
       O     9.42103  -15.16469  -11.16971
      H1     9.18116  -15.95050  -10.64533
       H     4.72214  -19.16136   -9.72695
       O     5.07284  -18.76446   -8.94905
      H1     4.27020  -18.39351   -8.58573
       H     4.05810  -15.11752  -15.73321
       O     3.57975  -15.18259  -14.85349
      H1     4.09212  -14.59988  -14.22947
       H     5.34557  -16.64908   -9.90454
       O     6.02080  -16.06417  -10.27952
      H1     5.72272  -15.17903  -10.25862
       H    12.99589  -14.82772   -9.67774
       O    13.28467  -13.93331   -9.82405
      H1    13.97652  -13.95949  -10.44836
       H    11.69125  -12.60206  -11.37702
       O    12.12599  -11.96863  -11.98226
      H1    12.17565  -12.44118  -12.83185
       H     6.16850  -12.14427   -8.07972
       O     6.96518  -11.47182   -8.00011
      H1     6.76860  -10.82895   -8.70142
       H    12.08784  -13.32633  -15.43615
       O    12.58303  -13.25339  -14.60281
      H1    13.48636  -13.43092  -14.80195
       H    15.65605  -17.38544  -10.07106
       O    16.12107  -17.07514   -9.26172
      H1    15.99271  -17.83534   -8.65209
       H    10.79085  -17.16879  -16.01915
       O     9.87382  -17.26502  -15.76494
      H1     9.40884  -17.09471  -16.57043
       H     9.96060  -19.04291  -10.30676
       O    10.06757  -19.25495  -11.24680
      H1    11.01989  -19.45524  -11.41284
       H    11.89280  -16.43338  -13.28099
       O    12.82102  -16.28320  -13.53113
      H1    13.00282  -15.31531  -13.55474
       H     4.07446  -12.63413   -9.80422
       O     4.23409  -13.43083  -10.30473
      H1     4.25450  -13.32130  -11.28907
       H     7.66465  -14.07259  -14.01993
       O     7.82185  -13.66691  -13.13662
      H1     8.05913  -14.36371  -12.49138
       H     6.52359  -17.57236  -12.75589
       O     6.51813  -17.05695  -13.56318
      H1     5.56521  -17.06228  -13.73827
       H    15.90466  -15.23195  -12.41926
       O    15.04617  -15.01052  -11.99248
      H1    14.89066  -15.74247  -11.41874
       H    10.30285  -11.49484  -12.47155
       O     9.50578  -11.33052  -12.99953
      H1     9.06199  -12.20047  -13.10047
       H    14.08259  -15.00711  -16.96378
       O    13.70343  -15.22101  -17.82658
      H1    13.14781  -15.98073  -17.51790
       H     8.60643  -14.74074   -6.09446
       O     9.48515  -14.60924   -5.78865
      H1     9.70573  -13.69803   -6.02071
       H     8.20063  -18.15993  -18.27284
       O     8.07680  -17.38298  -17.76382
      H1     7.33400  -16.92689  -18.15973
       H     8.52586  -15.45075  -15.55460
       O     7.62672  -15.22473  -15.43127
      H1     7.31661  -15.85241  -14.76583
       H    10.06381  -17.99867  -12.58831
       O    10.00189  -17.07523  -12.95972
      H1     9.77737  -17.30974  -13.85964

