135
frame 0 | Written by MDAnalysis XYZWriter (release 2.4.3)
       H    -6.51489   13.50935   16.22719
       O    -5.99279   14.23564   16.58415
      H1    -6.56659   14.69801   17.16754
       H    -6.70709   11.79192   14.44923
       O    -7.02731   12.02691   15.32440
      H1    -7.92115   11.64999   15.23399
       H    -9.93888   13.22973   15.38106
       O    -9.46397   13.68788   14.71454
      H1    -9.12051   14.47646   15.09929
       H   -11.26422   19.48376   19.07147
       O   -10.79505   18.72424   18.81842
      H1   -10.13414   18.95621   18.14389
       H   -10.04058   16.30994   15.97738
       O    -9.09692   16.05188   15.98946
      H1    -8.79006   16.75467   15.38941
       H   -11.70977   10.35120    9.82615
       O   -12.05047   11.18092    9.50916
      H1   -11.35532   11.81547    9.69325
       H   -12.02624    8.51108   13.51351
       O   -12.54992    8.55008   12.71025
      H1   -12.92139    7.65221   12.54179
       H   -14.63057   11.53299   16.64535
       O   -13.76220   11.31063   16.25252
      H1   -13.87227   11.24914   15.27044
       H   -14.75862   15.98610   14.53483
       O   -15.39545   15.39494   14.09746
      H1   -16.21172   15.53541   14.62962
       H    -8.57629   19.71096    9.30964
       O    -8.51515   19.14091   10.09222
      H1    -7.59153   19.27424   10.36615
       H   -11.01769   16.62754    9.46773
       O   -10.41792   17.02495    8.84218
      H1    -9.55903   17.07034    9.31356
       H   -14.52348   18.70808   13.18885
       O   -14.72566   19.65311   13.06129
      H1   -13.89956   20.13802   13.18582
       H    -5.93296   10.66617   10.08113
       O    -5.64315   11.54521   10.40460
      H1    -5.76661   11.57619   11.40117
       H   -12.13389   17.77288   17.68428
       O   -12.85454   17.47815   17.13061
      H1   -13.28935   18.34748   16.92508
       H    -8.06713   13.82250   12.97850
       O    -7.14079   13.90396   12.65308
      H1    -7.11671   14.06197   11.70313
       H   -10.70498   11.46904   17.28982
       O   -11.05020   12.29049   16.84688
      H1   -11.95004   12.01478   16.55934
       H   -12.82684   12.26931   12.31928
       O   -12.05983   12.90647   12.37696
      H1   -12.34694   13.64246   11.82852
       H   -10.89766   14.67125   14.47926
       O   -11.83581   14.91029   14.53318
      H1   -12.29898   14.15347   14.12227
       H   -13.70755    9.58896   16.25365
       O   -13.90358    8.70057   15.99694
      H1   -14.71243    8.81711   15.50946
       H   -12.84414   17.82635   11.69232
       O   -13.21192   17.13863   11.06670
      H1   -13.72925   17.64667   10.43190
       H   -13.22447   17.61517   15.35846
       O   -13.33147   17.13556   14.52690
      H1   -12.79583   16.33882   14.60147
       H    -9.54516   12.61014   10.82021
       O    -9.92663   13.05068   10.02778
      H1    -9.22219   13.55430    9.65018
       H   -11.48838   13.36638   18.15797
       O   -11.76942   13.79872   18.98397
      H1   -11.08500   14.44925   19.20539
       H    -6.22807   16.81747   14.68077
       O    -6.53472   17.62985   15.08241
      H1    -5.94808   18.30994   14.67155
       H   -14.46260   10.26997   13.70154
       O   -13.77356   10.83170   13.33765
      H1   -13.07025   10.19522   13.08272
       H    -8.79184    8.70441   16.91359
       O    -8.44548    7.88191   16.52103
      H1    -9.17531    7.28877   16.30788
       H    -6.90413    7.96685   15.61735
       O    -6.23674    8.07448   14.94940
      H1    -5.46857    7.57372   15.32338
       H    -9.17310   10.67818   13.84449
       O    -9.29737   10.28388   14.72869
      H1    -8.60092    9.63248   14.88707
       H    -6.41097   17.32998   17.32319
       O    -5.94853   17.01156   18.08449
      H1    -5.44245   17.81166   18.32690
       H    -3.59168   16.08898   13.33921
       O    -2.74820   16.35828   12.96984
      H1    -2.19893   16.37841   13.76357
       H    -5.67359   10.41311   12.91457
       O    -5.62730   11.33429   13.06980
      H1    -4.67879   11.49542   13.23795
       H    -5.74637   14.76958   13.72204
       O    -5.18705   15.41275   14.17192
      H1    -5.30994   15.14243   15.11125
       H    -9.29566   18.17179   11.38366
       O    -9.49160   17.46109   12.03812
      H1   -10.39451   17.49093   12.20280
       H    -4.46266   16.64462   16.92396
       O    -3.56725   16.42087   16.71980
      H1    -3.14316   16.07627   17.54408
       H   -11.28756    7.97334   15.69588
       O   -10.85795    8.21343   14.87867
      H1   -10.37038    9.08845   15.04257
       H    -2.48353   12.36622   14.21565
       O    -2.95826   11.49197   14.32048
      H1    -3.51545   11.78052   15.11731
       H    -9.00921   18.00019   13.55582
       O    -8.93376   18.31884   14.46099
      H1    -8.04989   18.14780   14.76131
       H    -7.55378   13.90377    8.90127
       O    -7.21575   13.81382    9.78747
      H1    -6.76236   12.97459    9.79411
       H    -6.12761   17.02490    8.77659
       O    -7.06206   16.76089    8.80529
      H1    -6.94446   15.92033    9.31758
       H   -12.19550   18.13246   13.55582
       O   -11.87104   18.70817   12.79523
      H1   -11.87768   19.62973   13.04233
       H    -8.40143   14.92834   17.46188
       O    -8.29654   14.60351   18.35785
      H1    -9.09547   15.01945   18.74271
       H   -10.39956   10.50613   11.56981
       O   -10.10482   11.08542   12.27684
      H1   -10.86202   11.78068   12.39199
       H    -5.76012   10.49311   18.24170
       O    -5.15038   10.82994   17.49014
      H1    -5.69527   11.40237   16.96329
       H    -9.64567    9.05633   18.75406
       O    -9.24652    9.81737   18.26138
      H1    -8.59710   10.15981   18.91161
       H    -4.56978   13.83730   18.05514
       O    -4.46208   13.73897   19.03527
      H1    -5.23308   13.29475   19.42244

