135
frame 10 | Written by MDAnalysis XYZWriter (release 2.4.3)
       H   -13.71267   15.53516    3.51432
       O   -13.86890   15.58034    4.48825
      H1   -14.50344   16.31848    4.55193
       H   -12.05521    9.56841    3.06019
       O   -12.97775    9.72477    2.70839
      H1   -12.92437   10.48383    2.08497
       H   -16.89033   14.50699    5.48516
       O   -17.12458   13.70484    5.09286
      H1   -16.49458   13.42246    4.41714
       H   -12.97888   17.57282   -0.59253
       O   -13.60324   18.26877   -0.40059
      H1   -13.27477   18.75090    0.39066
       H   -12.05296   15.50346    0.12838
       O   -12.12097   16.07104   -0.66052
      H1   -12.79959   15.72065   -1.23150
       H   -18.11925   13.23430   -5.83889
       O   -18.50277   14.09459   -5.66516
      H1   -19.25391   14.04601   -6.23627
       H   -18.65478   11.06609    8.96507
       O   -18.86395   10.31911    9.53515
      H1   -18.37139   10.54769   10.35478
       H   -13.81098    9.20005   -0.16861
       O   -13.12403    8.67170   -0.59302
      H1   -12.85390    7.94156   -0.03459
       H   -18.28997   14.62507    4.00756
       O   -18.58982   15.30904    3.38918
      H1   -19.55309   15.51541    3.48247
       H   -13.07138   15.61819   -3.62666
       O   -13.81280   15.20278   -3.16779
      H1   -14.57075   15.82946   -3.11375
       H   -13.92546   17.39116    2.74456
       O   -14.49671   17.99922    3.18670
      H1   -15.27296   17.96960    2.67117
       H   -19.08945   18.30355    0.92995
       O   -18.59806   19.14170    0.93391
      H1   -19.09955   19.90341    0.59976
       H   -14.21295   14.14175   -4.56182
       O   -14.37416   13.40642   -5.16625
      H1   -13.64313   13.32955   -5.84506
       H   -11.48447   16.86924    1.93145
       O   -11.44263   17.58620    2.59214
      H1   -10.88245   17.21366    3.25383
       H   -16.09182   17.59236   -2.49948
       O   -16.26047   16.71048   -2.89967
      H1   -16.51071   16.97705   -3.79470
       H   -17.96393   18.35278    2.72871
       O   -17.53407   17.87359    3.47196
      H1   -17.80894   16.95914    3.31222
       H   -18.32360   14.44881    0.50421
       O   -18.24953   13.71702    1.18333
      H1   -18.43533   14.18540    2.02440
       H   -16.35340   19.55720   -1.56321
       O   -15.64202   19.36436   -2.17445
      H1   -14.87232   19.20784   -1.66840
       H   -16.52187   13.09775    1.79766
       O   -15.73975   13.11014    2.40007
      H1   -15.25203   12.34709    2.09350
       H   -14.08230   13.36033   -2.33669
       O   -13.85682   12.78008   -1.56877
      H1   -14.11143   11.90966   -1.88267
       H   -15.32689   17.49409    6.22319
       O   -16.02119   17.00460    5.74782
      H1   -16.20171   17.59385    5.02419
       H   -17.06047    9.50697   -3.59594
       O   -16.77011    8.69743   -4.04964
      H1   -17.28639    8.56302   -4.88338
       H   -18.67256    6.20143    5.31607
       O   -18.76883    6.88740    6.04658
      H1   -18.08633    7.50939    5.78576
       H   -11.25998   11.18209   -1.93041
       O   -11.62148   11.68593   -2.64868
      H1   -12.24253   12.18725   -2.11409
       H   -15.47965    9.78144    1.33692
       O   -15.09566   10.32596    0.67083
      H1   -15.70388   10.59072   -0.05323
       H   -14.82405   15.46388    0.61202
       O   -14.38303   15.29050    1.49634
      H1   -14.83403   14.47525    1.77380
       H   -18.02675   12.30084    5.85819
       O   -18.70244   11.76815    6.27795
      H1   -18.33012   10.91071    6.53035
       H   -17.65266   13.58007   -2.15655
       O   -17.96323   12.74934   -2.69125
      H1   -17.89752   13.03124   -3.59006
       H   -19.17619   12.39481   -1.48741
       O   -19.79805   12.30964   -0.71210
      H1   -19.25841   12.60739    0.01189
       H   -11.85521   13.50550    5.65313
       O   -10.97368   13.84896    5.93894
      H1   -10.52481   13.30479    6.57898
       H   -18.80112   13.90201    9.03679
       O   -17.95198   14.32186    8.83691
      H1   -18.26483   15.06419    8.30978
       H   -18.28086   17.69313   -4.68811
       O   -17.40285   17.83067   -5.03472
      H1   -17.37058   17.11162   -5.75390
       H   -11.93120   12.01842    1.16076
       O   -12.73500   12.53874    1.37925
      H1   -13.38717   12.16424    0.76921
       H   -14.09121   13.73962    5.42426
       O   -13.72200   12.95194    5.84750
      H1   -14.15877   12.23832    5.41347
       H   -14.44647    8.39935    2.21848
       O   -15.36291    8.52132    2.56544
      H1   -15.95905    7.94135    2.09045
       H   -16.05641    7.72244    5.28524
       O   -16.62284    8.49201    5.49539
      H1   -16.88571    8.80141    4.58658
       H   -15.19362    9.62865    5.39369
       O   -14.47689   10.23144    5.12887
      H1   -13.98949    9.70189    4.44320
       H   -12.10064   16.46169    6.89218
       O   -12.15672   16.89824    6.04350
      H1   -12.57106   16.31443    5.42157
       H   -17.70845   16.53925    6.44213
       O   -18.41440   16.24891    7.02405
      H1   -18.86866   17.00845    7.31490
       H   -18.48310    8.78523    0.31146
       O   -17.90445    8.21887   -0.23518
      H1   -18.43198    7.52108   -0.60557
       H   -17.52390   16.03778   -1.65873
       O   -18.21598   15.55330   -1.16492
      H1   -18.78617   16.22199   -0.80613
       H   -17.35335    9.97912   -1.15687
       O   -16.72413   10.41893   -1.64583
      H1   -17.07100   11.24807   -1.90891
       H   -16.53405    5.76607    0.83187
       O   -16.98036    6.36026    1.42540
      H1   -17.40330    7.01546    0.86391
       H   -11.44568   13.91491    1.35287
       O   -11.15780   14.86597    1.57504
      H1   -10.29120   14.92722    1.11712
       H   -14.78951   13.38002    9.33291
       O   -13.99544   13.22080    8.83992
      H1   -14.22080   13.04976    7.98083

