135
frame 3 | Written by MDAnalysis XYZWriter (release 2.4.3)
       H    -2.13211   -8.96209    0.48709
       O    -1.65261   -9.76492    0.80985
      H1    -1.03907   -9.43636    1.43956
       H    -5.54233   -8.00578   -2.31978
       O    -5.04007   -8.09945   -1.48293
      H1    -4.90725   -7.22011   -1.13018
       H    -6.00234   -7.57290    3.36323
       O    -6.83300   -7.32277    2.89055
      H1    -6.89486   -7.96790    2.15376
       H    -0.05420   -7.88322   -2.48513
       O     0.68547   -7.91270   -3.10970
      H1     0.62051   -8.80304   -3.47909
       H    -7.59037  -12.12813    5.97649
       O    -7.36052  -11.62575    5.14407
      H1    -8.01879  -11.88578    4.43542
       H    -1.08049  -14.62360   -5.60642
       O    -0.71233  -13.83942   -5.10349
      H1    -1.49447  -13.30033   -4.93509
       H    -9.41150  -12.97036    3.14582
       O    -8.68941  -12.32563    3.00367
      H1    -8.29987  -12.75429    2.24671
       H   -10.64641  -13.18462   -0.45773
       O   -10.07996  -12.44128   -0.74473
      H1   -10.64108  -11.64259   -0.68523
       H    -3.48595  -11.89773    5.97610
       O    -3.12051  -10.97998    5.93150
      H1    -2.82924  -11.00552    4.98261
       H    -2.97212  -11.42652   -3.97952
       O    -3.07378  -12.05559   -4.76670
      H1    -2.69396  -11.71906   -5.59395
       H   -10.82778  -10.99174    4.32097
       O   -10.64665  -10.57290    3.45553
      H1    -9.95328  -11.09004    2.95479
       H    -7.02808  -16.20383    2.49519
       O    -6.22234  -15.62645    2.35833
      H1    -6.15092  -15.60151    1.41202
       H    -4.94839  -11.50264    1.29116
       O    -4.91443  -10.98462    2.11797
      H1    -5.08568  -11.69135    2.77499
       H    -0.89993   -6.55367   -0.17265
       O    -0.59498   -7.36742   -0.52374
      H1     0.15553   -7.52914    0.03755
       H    -9.44322  -13.59856   -3.55621
       O    -9.46074  -12.67191   -3.46614
      H1    -9.71619  -12.52179   -2.56857
       H    -4.20121  -14.00918   -7.23796
       O    -4.38269  -14.78803   -6.69908
      H1    -4.79521  -14.48540   -5.83278
       H    -5.07004  -14.92616   -1.22135
       O    -4.51735  -14.25767   -1.66401
      H1    -3.65144  -14.57262   -1.92624
       H    -4.01463  -14.76613    6.00748
       O    -3.98686  -13.82240    5.87982
      H1    -4.54922  -13.52746    5.13489
       H    -6.19143  -12.52400    4.31411
       O    -5.42887  -12.96836    3.79807
      H1    -5.81376  -13.84037    3.51755
       H    -6.87658   -7.11254   -3.63095
       O    -6.26471   -7.82956   -3.80462
      H1    -6.78479   -8.53563   -4.14451
       H    -8.09295   -8.20226   -0.81412
       O    -7.46923   -7.82582   -0.16082
      H1    -6.62766   -7.96353   -0.56822
       H    -8.41572   -9.24382   -6.12858
       O    -7.62960   -9.73371   -5.75169
      H1    -8.06953  -10.29559   -5.06003
       H    -1.01212  -15.12257   -1.13560
       O    -1.92036  -15.46321   -1.18690
      H1    -1.80138  -16.11698   -1.90016
       H    -1.80841  -10.74225    3.11566
       O    -2.47769  -11.39147    3.35692
      H1    -3.21900  -11.24940    2.77123
       H    -2.33312  -15.96392    0.60822
       O    -2.31613  -16.07579    1.55659
      H1    -2.63643  -15.25257    1.89446
       H    -4.71060  -13.14408   -4.46613
       O    -5.39406  -13.74179   -4.18157
      H1    -5.01678  -13.96657   -3.33940
       H    -8.61045   -9.23648   -2.33158
       O    -9.32989   -8.85894   -1.80136
      H1   -10.01289   -8.38829   -2.34372
       H    -3.35654  -17.23035    2.10862
       O    -4.14788  -17.59950    2.51286
      H1    -4.81223  -16.98433    2.31258
       H    -7.79352  -11.66298   -3.31621
       O    -7.27477  -10.97080   -2.88015
      H1    -6.47771  -11.36042   -2.50098
       H    -4.48723  -10.93306   -1.14188
       O    -5.14780  -11.58311   -0.83987
      H1    -4.75688  -12.41682   -1.11977
       H     0.14310  -12.94491   -1.00724
       O     0.33205  -13.88195   -0.94154
      H1     1.28664  -13.98068   -0.63407
       H    -7.00528  -16.27199   -1.01624
       O    -6.47502  -15.66485   -0.45651
      H1    -6.95923  -14.82299   -0.33533
       H    -1.95580   -7.61068   -5.10359
       O    -2.29903   -8.50185   -5.15726
      H1    -3.22436   -8.49365   -4.78129
       H    -3.54821   -5.18650   -0.32358
       O    -4.45550   -5.55902   -0.52736
      H1    -4.51035   -5.38239   -1.47180
       H    -6.85937  -12.34244   -0.04906
       O    -7.45457  -13.06583    0.15107
      H1    -8.29877  -12.66274   -0.12851
       H     1.38857  -12.74062    1.60106
       O     0.56803  -13.20399    1.92797
      H1     0.17202  -13.61191    1.20762
       H    -2.30736  -13.09424    3.27884
       O    -2.27951  -14.05199    3.55473
      H1    -2.45654  -13.99255    4.52007
       H    -8.48051  -17.83846   -2.55319
       O    -7.67905  -17.29902   -2.65141
      H1    -7.85897  -16.82076   -3.50794
       H    -6.84529  -11.11569   -6.96691
       O    -6.39325  -11.92109   -7.32330
      H1    -6.63793  -11.97511   -8.29842
       H    -4.55036   -9.21573    3.57063
       O    -4.51722   -8.41967    4.11300
      H1    -5.04353   -8.60652    4.87765
       H   -11.16966   -9.67593   -1.17462
       O   -11.81006  -10.08865   -0.60253
      H1   -12.62912  -10.19249   -1.15404
       H    -0.97983  -10.84628   -3.28973
       O    -0.54590  -10.34768   -4.02243
      H1    -1.13599   -9.70183   -4.37767
       H    -2.97385   -9.78412   -1.94743
       O    -2.70169  -10.69137   -2.28243
      H1    -1.91942  -10.87701   -1.72252
       H    -0.62688  -11.00488   -0.31084
       O    -0.38357  -11.19040   -1.24733
      H1     0.49409  -10.87099   -1.44802
       H    -6.42176   -5.93369    1.90251
       O    -6.31898   -5.04671    1.46582
      H1    -5.71075   -5.17708    0.77377

