135
frame 8 | Written by MDAnalysis XYZWriter (release 2.4.3)
       H     7.74155   -8.36354  -12.41110
       O     7.31310   -9.17662  -12.09085
      H1     7.84362   -9.91408  -12.35676
       H     7.01151   -6.23868  -12.90190
       O     7.84954   -6.65277  -12.63998
      H1     8.04771   -6.44413  -11.75288
       H     8.97857   -4.50944  -15.09047
       O     8.65622   -3.61804  -14.95020
      H1     7.75374   -3.59083  -14.60969
       H     9.30990   -6.94129  -17.06738
       O     9.61790   -7.23673  -17.93941
      H1     9.49507   -6.48707  -18.54729
       H    14.58609   -6.10343  -19.46626
       O    14.88438   -6.79927  -18.84299
      H1    15.49612   -7.33953  -19.31474
       H    11.74360   -9.91224  -11.61782
       O    11.43109   -8.99096  -11.40220
      H1    12.04271   -8.34078  -11.71804
       H     3.23309   -4.38931  -17.99884
       O     3.99514   -4.89170  -17.78419
      H1     4.02859   -5.80013  -18.10978
       H     9.05324   -1.35724  -19.84643
       O     9.67843   -1.51271  -19.12753
      H1    10.30187   -2.20799  -19.36204
       H    10.11682   -0.83398  -17.57776
       O    10.54055   -0.42043  -16.81215
      H1    10.35736   -0.99092  -16.07748
       H    13.87949   -4.76523  -13.62614
       O    13.57082   -4.93815  -14.48360
      H1    13.10200   -5.78583  -14.41770
       H     9.51071  -14.57405  -18.76148
       O     9.46470  -14.00974  -17.98667
      H1     8.75061  -13.38573  -18.13134
       H     5.08950   -5.31752  -16.56534
       O     5.73000   -5.72294  -15.87222
      H1     6.59734   -5.57111  -16.26163
       H    11.82059   -6.51631  -17.72601
       O    12.29348   -5.72576  -17.41527
      H1    13.22942   -6.02101  -17.41818
       H    10.06681  -10.01455  -14.38548
       O    10.24608   -9.49267  -15.20141
      H1     9.76141   -8.66250  -15.12115
       H     2.74736   -9.38766  -16.01359
       O     3.03896   -8.47051  -15.99370
      H1     3.97061   -8.47927  -15.63541
       H    11.49326   -4.71865   -9.77051
       O    11.21276   -5.14097  -10.59262
      H1    11.41904   -4.62897  -11.33492
       H    13.07121   -2.59189  -17.06750
       O    12.46023   -2.07954  -17.61587
      H1    12.11406   -1.39855  -17.03248
       H    14.20673   -3.95262  -15.81824
       O    14.63158   -3.23894  -16.32975
      H1    15.33345   -3.65959  -16.88574
       H    12.90946   -9.51692  -18.74550
       O    13.73752   -9.34450  -18.36626
      H1    13.90319   -8.42155  -18.58321
       H    11.43630   -2.77334  -11.63780
       O    12.10063   -3.07612  -12.25949
      H1    12.86433   -2.75565  -11.87886
       H     5.49122   -3.02872  -13.61170
       O     6.25635   -2.51985  -13.85993
      H1     5.83749   -1.69938  -14.21105
       H    14.03384  -12.70945  -19.45332
       O    14.53962  -12.23932  -18.76655
      H1    14.07100  -11.36350  -18.77616
       H    11.03456  -13.46966  -17.69070
       O    11.84977  -13.09759  -17.41898
      H1    12.57475  -13.64578  -17.69649
       H     3.27676   -9.06275  -18.76756
       O     2.54914   -9.55056  -19.15776
      H1     2.41829   -9.34090  -20.09737
       H     5.12488   -4.33887  -19.03394
       O     5.87157   -3.98075  -19.53521
      H1     5.45182   -3.24632  -19.97297
       H     5.81699   -8.59911  -14.05636
       O     5.98427   -8.22492  -14.90084
      H1     6.06159   -7.28234  -14.84047
       H     4.01427   -7.92365  -17.42228
       O     4.51982   -7.68332  -18.18879
      H1     5.38301   -7.94070  -17.92353
       H     4.50936  -12.62653  -18.68684
       O     5.31074  -12.78688  -18.13150
      H1     4.97125  -12.36923  -17.33725
       H     6.76753   -8.72973  -16.70863
       O     7.18562   -8.77917  -17.60052
      H1     8.09842   -8.62396  -17.43063
       H    14.71456   -8.63535  -15.31183
       O    13.87612   -9.11502  -15.40352
      H1    13.59034   -9.17541  -16.30466
       H    11.01115   -1.49905  -13.68553
       O    10.15157   -1.38770  -14.18282
      H1     9.66488   -2.17964  -14.31929
       H    12.49554   -7.10067  -13.19294
       O    12.05779   -7.20046  -14.09949
      H1    12.48339   -8.00037  -14.51313
       H     3.65282   -8.49417  -11.48736
       O     4.39079   -8.53526  -12.18601
      H1     5.15198   -8.08958  -11.74024
       H     4.81256   -5.84316  -12.83005
       O     5.38238   -5.18718  -13.23986
      H1     5.46585   -5.26524  -14.18578
       H    10.13883   -6.91018  -14.80625
       O     9.20608   -6.82917  -15.04566
      H1     8.77686   -6.74492  -14.15151
       H     7.51634  -10.58293  -18.04958
       O     7.64508  -11.44020  -18.53270
      H1     6.82957  -11.98835  -18.38306
       H    13.91466   -6.33804  -11.63796
       O    13.11911   -6.80501  -11.68139
      H1    12.46183   -6.22805  -11.16719
       H    15.12647  -10.65092  -15.89226
       O    15.60684  -11.41407  -16.24572
      H1    15.28938  -11.40350  -17.19280
       H    16.22399   -6.94425  -15.92370
       O    15.84523   -7.10715  -15.05728
      H1    15.18252   -6.41537  -14.81863
       H    11.05801   -9.96418  -16.90803
       O    11.37118  -10.40001  -17.70076
      H1    11.28228  -11.42100  -17.51114
       H    10.72466   -4.09100  -19.55807
       O    11.42710   -3.49882  -19.78814
      H1    11.76064   -3.09519  -18.93204
       H    10.30285  -11.49484  -12.47155
       O     9.50578  -11.33052  -12.99953
      H1     9.06199  -12.20047  -13.10047
       H     9.37416   -5.34645  -10.29672
       O     8.54487   -5.86822  -10.07012
      H1     7.89240   -5.15432   -9.83775
       H    17.63757   -7.17633  -17.90054
       O    16.99825   -6.63230  -17.46511
      H1    16.21118   -6.61273  -17.95825
       H     8.13690   -3.32386  -17.17359
       O     7.91036   -4.00835  -17.79785
      H1     7.13732   -3.67009  -18.25663

