135
frame 4 | Written by MDAnalysis XYZWriter (release 2.4.3)
       H     3.64909   17.62748  -14.81546
       O     4.33826   17.69455  -15.44921
      H1     4.01571   17.94661  -16.32361
       H     6.34915   20.18304  -14.82726
       O     5.45313   19.89441  -14.58669
      H1     5.30345   18.99038  -14.87207
       H    -3.82754   14.15542  -11.58980
       O    -4.31922   13.58568  -10.98438
      H1    -4.70768   12.90886  -11.52831
       H    -6.00649   14.56721  -15.29356
       O    -5.40076   14.70368  -16.05421
      H1    -5.49712   15.58486  -16.39349
       H    -2.31054   17.47654  -13.08922
       O    -2.06680   18.19304  -13.66286
      H1    -1.89243   17.76756  -14.52182
       H    -3.87448   18.91470  -13.86305
       O    -4.66836   19.46252  -13.73355
      H1    -4.74157   19.71771  -12.78029
       H     0.55232   16.62755  -12.76479
       O     0.64461   16.08825  -11.94275
      H1     0.41394   16.72740  -11.25689
       H     2.02410   12.19977  -13.27684
       O     1.80790   12.08789  -12.32627
      H1     0.81868   12.16554  -12.35588
       H     3.10527   15.38387  -14.77067
       O     2.47295   15.47137  -15.52792
      H1     3.03309   15.04339  -16.21566
       H     5.29422   15.85367  -16.04853
       O     5.66096   15.08899  -16.53891
      H1     5.02014   14.94872  -17.27378
       H     0.97534   15.64133  -19.78237
       O     0.95697   15.59879  -18.81171
      H1     0.33598   14.86204  -18.66714
       H    -3.95196   17.14898  -18.94502
       O    -4.01145   16.57384  -18.19503
      H1    -4.16615   15.68320  -18.56348
       H    -0.34484   19.19473  -10.44701
       O    -0.37962   18.94051   -9.53169
      H1    -1.27296   18.94191   -9.15229
       H    -6.60663   11.83475  -16.87377
       O    -6.55684   11.30594  -16.07767
      H1    -7.17105   10.55427  -16.29175
       H    -0.73010   16.79543  -16.16336
       O    -1.69728   16.69059  -16.18159
      H1    -1.91537   16.53742  -17.08600
       H    -0.85643   13.73278  -13.26923
       O    -0.97998   13.92839  -12.37459
      H1    -0.43374   14.65755  -12.12646
       H     0.80707    9.47967  -18.73841
       O     0.20144   10.16763  -19.02638
      H1     0.19724   10.24486  -19.99517
       H    -1.84160    9.75971  -14.94545
       O    -1.70148   10.56437  -14.50049
      H1    -2.62371   10.83459  -14.31122
       H    -6.08620   17.98991  -18.90097
       O    -6.48806   18.63104  -18.30048
      H1    -6.75342   19.29033  -18.93949
       H    -8.43684   18.13518  -12.43959
       O    -7.73142   18.22783  -11.81061
      H1    -7.15172   17.48281  -12.11596
       H     5.21393   17.08733  -12.71780
       O     4.28034   17.23721  -12.73163
      H1     3.96721   17.15381  -11.79894
       H     3.40805   13.55952  -18.61393
       O     4.10633   14.22857  -18.53658
      H1     3.89019   14.88231  -19.20982
       H     1.45570   16.96427  -14.64647
       O     0.74035   17.62086  -14.51991
      H1     1.21978   18.37358  -14.90494
       H    -4.73075    9.28965  -14.25358
       O    -4.52509   10.22713  -14.32215
      H1    -5.25475   10.65164  -14.81560
       H    -4.55250   16.48383  -12.55012
       O    -5.49721   16.71470  -12.72342
      H1    -5.41157   17.55036  -13.25914
       H    -7.17385   18.03067  -16.45239
       O    -7.30521   17.42256  -15.71650
      H1    -8.11954   17.82880  -15.32955
       H    -1.05272   11.32259  -10.43756
       O    -1.12444   11.06018  -11.37341
      H1    -1.50261   11.95484  -11.59196
       H    -1.60363   13.45345  -18.48121
       O    -0.67921   13.64545  -18.21553
      H1    -0.84050   13.89019  -17.26455
       H    -7.92752   15.79917  -16.22122
       O    -8.32366   14.92328  -15.99096
      H1    -8.02073   14.82246  -15.12874
       H     0.63773    9.82790  -14.82999
       O     1.49823    9.48143  -14.71632
      H1     1.48710    9.43044  -13.72984
       H     2.20775   12.43342  -16.35324
       O     2.35275   12.51142  -15.41656
      H1     3.04647   11.85623  -15.32882
       H    -7.63668   13.30353  -18.14667
       O    -6.64609   13.09384  -17.99166
      H1    -6.44092   13.81450  -17.33574
       H     3.00373   18.10192  -18.70853
       O     3.92627   17.99731  -18.50695
      H1     4.34386   18.88046  -18.69038
       H    -3.45123   14.27399  -16.52297
       O    -2.87473   13.51369  -16.68010
      H1    -3.39173   12.82178  -17.04766
       H    -0.05158   18.99408  -12.93359
       O     0.32437   19.34195  -12.15283
      H1     1.16188   19.71207  -12.49043
       H    -6.99867   13.65610  -13.06287
       O    -7.06267   14.47399  -13.60867
      H1    -6.40618   15.11535  -13.20005
       H     2.26817   13.74794  -11.43604
       O     2.75694   14.44392  -10.99208
      H1     2.40366   15.26244  -11.31204
       H     0.51104   17.86249  -18.53991
       O     0.88416   18.72399  -18.46299
      H1     0.55045   19.13984  -19.28387
       H    -1.62388   10.28035  -18.95456
       O    -2.53429   10.31287  -19.27874
      H1    -2.76043    9.52444  -19.71564
       H     0.57231   12.68419  -15.35973
       O    -0.30307   12.98101  -15.11434
      H1    -0.86570   12.22099  -15.39179
       H    -2.30755   15.40557  -12.01691
       O    -3.06777   16.00627  -11.96572
      H1    -3.25257   16.19170  -11.04220
       H     0.98638   12.95314  -17.99093
       O     1.82529   12.51746  -18.15523
      H1     1.59685   11.67029  -18.50688
       H    -4.03840   16.31101   -8.66696
       O    -4.36569   16.95839   -9.33992
      H1    -4.03042   17.83592   -9.08950
       H    -3.40783    9.92476  -17.45933
       O    -3.75929    9.32676  -16.74832
      H1    -4.09517    9.89383  -16.03769
       H    -5.79995   14.84110  -19.90792
       O    -4.99099   14.39489  -19.59048
      H1    -5.44719   13.83281  -18.94012

