135
frame 6 | Written by MDAnalysis XYZWriter (release 2.4.3)
       H    -9.88666  -16.62888   -8.58101
       O    -9.38710  -16.78198   -9.40998
      H1    -8.96055  -17.64540   -9.39810
       H   -18.14806  -13.43422  -10.78691
       O   -17.31689  -13.17495  -11.24633
      H1   -17.01490  -12.32236  -10.82802
       H    -7.29052  -11.47326  -10.36262
       O    -7.17206  -10.95983  -11.17512
      H1    -6.21839  -10.80736  -11.31349
       H   -10.88871  -15.88552  -12.47024
       O   -10.87265  -15.45779  -11.60764
      H1   -10.16279  -15.92446  -11.17948
       H   -10.58234  -10.79474  -13.97459
       O   -11.10422  -11.25856  -14.58063
      H1   -10.55550  -11.96652  -14.97273
       H   -11.49177   -5.18480  -11.41166
       O   -12.03003   -5.29994  -10.64170
      H1   -11.97347   -4.45431  -10.16564
       H    -8.34170  -12.32401  -12.48688
       O    -8.40074  -13.19400  -12.77940
      H1    -7.90914  -13.67885  -12.10410
       H   -14.15566  -10.65707  -13.09752
       O   -13.63617   -9.83664  -13.03966
      H1   -14.19787   -9.09781  -13.33915
       H   -10.36897  -12.56819  -10.60906
       O   -10.08130  -12.14165   -9.79736
      H1   -10.28739  -12.77445   -9.13263
       H   -10.61846  -14.76529   -7.76549
       O   -10.59458  -13.77671   -7.63289
      H1    -9.92367  -13.67127   -6.96188
       H   -16.44710  -11.12720   -8.86044
       O   -16.56927  -11.02915   -9.84918
      H1   -15.93850  -10.33401  -10.02332
       H   -14.10315  -12.95831  -14.81776
       O   -14.06390  -13.60443  -14.06238
      H1   -13.19043  -13.49111  -13.65235
       H   -13.69559   -9.42060   -9.41189
       O   -14.22429   -8.63883   -9.44470
      H1   -13.63243   -7.92179   -9.19432
       H   -15.65946   -8.62864   -7.68167
       O   -16.38792   -9.02844   -7.13827
      H1   -17.05109   -8.35783   -7.02538
       H   -11.31934   -8.20870  -10.21102
       O   -11.30220   -8.30533  -11.14789
      H1   -11.88863   -7.55617  -11.46705
       H    -8.62925  -10.04441  -12.29412
       O    -9.39740   -9.75903  -12.79253
      H1   -10.05666   -9.33710  -12.23590
       H   -15.27415   -9.57525   -3.98249
       O   -14.85984   -9.02009   -4.63648
      H1   -15.47175   -9.08807   -5.42722
       H    -7.40395   -9.16190  -10.20376
       O    -7.61808   -8.37808   -9.67843
      H1    -6.77719   -7.97621   -9.48939
       H   -12.06798   -6.45135   -9.35056
       O   -12.25873   -7.05643   -8.62048
      H1   -11.50626   -7.27309   -8.07016
       H   -10.15683  -10.32638   -6.63621
       O   -10.20489  -10.15569   -5.69907
      H1   -10.91169  -10.69330   -5.35571
       H    -9.55161  -14.54518   -4.99106
       O    -9.62258  -13.57300   -5.00366
      H1   -10.45587  -13.42157   -4.61638
       H   -10.44635   -8.48516   -6.24225
       O   -10.36787   -7.63423   -6.66255
      H1    -9.45978   -7.49201   -7.00695
       H   -17.03293  -11.47183   -5.43091
       O   -16.90385  -11.23897   -4.51365
      H1   -17.70473  -10.70359   -4.38900
       H    -8.03051  -10.38530   -4.72462
       O    -7.50139   -9.79532   -4.19678
      H1    -7.01043  -10.34804   -3.62124
       H   -11.12822  -12.60771  -12.93176
       O   -11.53353  -12.97100  -12.16051
      H1   -11.34262  -13.91238  -12.05793
       H   -13.47875  -10.29702   -4.83094
       O   -12.91517  -11.03090   -4.44024
      H1   -13.56766  -11.60920   -4.09003
       H   -12.21871   -8.25756  -13.39975
       O   -12.33104   -7.29636  -13.48956
      H1   -12.03576   -7.18044  -14.43835
       H   -15.95084   -7.73681  -10.21857
       O   -16.34945   -6.82626  -10.13700
      H1   -16.00210   -6.43494  -10.92784
       H   -15.76122  -12.11524   -3.67606
       O   -14.94610  -12.69552   -3.49601
      H1   -15.06914  -12.91369   -2.56313
       H    -7.35373  -14.45926   -9.56949
       O    -8.11168  -14.57398   -8.89866
      H1    -8.58240  -15.26537   -9.39998
       H   -14.41002   -7.49854   -4.00648
       O   -14.24019   -6.57156   -3.61390
      H1   -13.31237   -6.20970   -3.70453
       H   -13.81342  -13.47383   -6.54065
       O   -13.29292  -14.23137   -6.19003
      H1   -12.32894  -14.00386   -6.42991
       H   -11.45859  -17.52309   -7.71493
       O   -11.06547  -16.64305   -7.41319
      H1   -10.83934  -16.77718   -6.46560
       H   -11.50609  -10.97065   -9.44407
       O   -12.04510  -10.39477   -8.84838
      H1   -12.56153  -11.03311   -8.32376
       H   -14.36121  -12.61677   -8.45601
       O   -14.38839  -12.07390   -7.61052
      H1   -15.34358  -12.06847   -7.54421
       H   -15.21990  -15.74174  -10.67749
       O   -16.15477  -15.75254  -10.99755
      H1   -16.46202  -14.76005  -11.01368
       H   -15.54386  -13.99540   -4.72335
       O   -16.01071  -14.78628   -5.00350
      H1   -15.40816  -15.54120   -4.90413
       H    -8.62185   -9.46528   -8.69089
       O    -8.96157  -10.24982   -8.23655
      H1    -9.52094  -10.76245   -8.87380
       H    -7.33509  -12.87232   -8.50025
       O    -6.96821  -11.98309   -8.58885
      H1    -7.78412  -11.39007   -8.29184
       H   -10.36390   -9.56255   -2.62114
       O   -10.98355  -10.08351   -2.09491
      H1   -11.80421  -10.13117   -2.63729
       H   -13.48125  -13.07873  -10.75984
       O   -13.80932  -13.35810   -9.95272
      H1   -13.45071  -14.17414   -9.54372
       H   -17.91508  -11.90612   -7.56306
       O   -17.12151  -11.62217   -7.10962
      H1   -17.17957  -10.62922   -7.11350
       H   -12.90200  -14.08425   -4.31924
       O   -12.14901  -13.97857   -3.68894
      H1   -12.26391  -14.77794   -3.16809
       H   -15.14064  -15.76155   -8.46180
       O   -14.22814  -15.75040   -8.57327
      H1   -13.81418  -15.48717   -7.70069
       H   -12.39243   -5.53987   -7.46746
       O   -12.21924   -4.71379   -6.94342
      H1   -11.23666   -4.58395   -6.97628

