135
frame 11 | Written by MDAnalysis XYZWriter (release 2.4.3)
       H    -9.64785  -18.50085   -4.01962
       O    -9.29469  -18.13073   -4.80485
      H1    -8.45556  -18.53210   -5.04898
       H   -14.34478  -13.40602   -1.30173
       O   -14.47498  -14.34962   -1.55142
      H1   -15.44027  -14.38137   -1.47947
       H   -17.04659  -12.30601    1.75527
       O   -17.01328  -11.46775    1.31323
      H1   -16.39594  -10.97299    1.90206
       H    -8.36338  -17.88158    3.92725
       O    -7.57952  -18.39224    3.69738
      H1    -7.71341  -19.24197    4.17926
       H   -17.37789  -14.21578   -3.62696
       O   -17.88865  -13.63206   -3.09813
      H1   -18.24237  -14.22449   -2.44990
       H   -16.89814  -15.69466    4.62699
       O   -17.50874  -14.96606    4.43555
      H1   -16.98506  -14.19941    4.71219
       H   -10.96845  -12.68948    0.32921
       O   -11.47815  -13.01201    1.12100
      H1   -10.67823  -13.09972    1.66072
       H   -10.14552  -12.65049   -1.64251
       O    -9.74865  -11.88846   -1.15661
      H1   -10.27140  -11.12176   -1.44216
       H   -17.53963  -18.90926    0.58375
       O   -16.74057  -18.32632    0.43143
      H1   -16.63595  -18.02277    1.30429
       H   -10.55803  -18.90919   -0.43699
       O   -11.31051  -18.66335    0.08236
      H1   -10.95528  -18.23251    0.80640
       H   -15.49607  -17.98512    3.93220
       O   -15.21813  -17.99615    3.02365
      H1   -15.12315  -18.93436    2.77279
       H   -13.18100  -19.73532    5.65987
       O   -12.71560  -19.08207    6.16128
      H1   -12.00819  -18.73605    5.64105
       H   -15.97454  -18.71647   -5.25188
       O   -15.48406  -18.36513   -6.07407
      H1   -14.73423  -17.80328   -5.73294
       H   -11.10768   -9.65975    1.63839
       O   -10.86152   -8.73865    1.43040
      H1   -10.64810   -8.74955    0.50695
       H   -14.15315  -13.06002    1.62907
       O   -14.46337  -13.70214    2.24273
      H1   -13.69112  -14.02221    2.73051
       H   -11.23430  -16.24641    2.93954
       O   -10.32638  -16.44229    2.82471
      H1    -9.93264  -15.93225    2.08645
       H   -10.63826  -17.74911    4.45533
       O   -10.29570  -18.19563    5.23521
      H1   -10.00607  -17.39599    5.79318
       H   -11.45398  -10.35610    4.03135
       O   -12.32710  -10.53104    3.68705
      H1   -12.74707  -10.76375    4.51389
       H   -13.93187  -10.01855   -2.85682
       O   -13.07046  -10.36667   -3.15888
      H1   -12.99197  -10.16061   -4.09083
       H    -8.92735  -16.42728   -4.84754
       O    -8.79652  -15.45234   -4.79990
      H1    -9.39312  -15.10593   -4.15688
       H   -17.91927  -14.53058    2.55435
       O   -17.90512  -14.07993    1.71892
      H1   -18.80884  -13.89926    1.41914
       H   -16.21671   -9.15078   -2.45026
       O   -15.49357   -9.59861   -2.00296
      H1   -15.86284  -10.50251   -1.79571
       H    -7.66157  -14.71438    3.67105
       O    -7.00203  -14.85538    4.32793
      H1    -7.10092  -15.69979    4.72104
       H   -16.79760  -12.56726   -2.09718
       O   -16.09479  -12.27016   -1.48170
      H1   -16.50312  -12.08379   -0.64466
       H   -15.36786   -8.99187    2.43660
       O   -15.08110   -9.88889    2.62004
      H1   -14.11803   -9.80964    2.78562
       H   -12.38478  -11.84474   -4.44215
       O   -12.11511  -12.60870   -4.98346
      H1   -12.95147  -13.16008   -4.76018
       H   -17.49577  -15.11326    0.20460
       O   -17.10390  -15.64058   -0.53782
      H1   -16.96639  -16.51422   -0.15920
       H   -14.84797  -13.55994   -4.62828
       O   -14.19685  -14.10500   -4.16366
      H1   -14.38777  -13.96419   -3.26095
       H   -15.21280  -12.42317    3.49688
       O   -15.69182  -12.60056    4.29846
      H1   -15.44907  -11.82226    4.81437
       H   -14.63458  -17.07963   -1.17950
       O   -14.91321  -17.41304   -2.02915
      H1   -15.15552  -18.31357   -1.85397
       H    -7.63525  -12.94236    1.57713
       O    -8.03173  -13.76992    1.85834
      H1    -8.25897  -14.25650    1.04960
       H   -18.24776  -17.63984   -1.51622
       O   -18.85730  -18.08060   -2.07235
      H1   -18.38359  -18.42375   -2.81025
       H   -17.27568  -18.23704    5.41956
       O   -16.59429  -17.54910    5.21232
      H1   -15.95882  -17.66253    5.89482
       H    -8.89385  -16.68463   -0.08745
       O    -9.12449  -15.88866    0.37257
      H1    -9.90712  -15.57692   -0.03939
       H   -12.43276  -12.44689    6.96245
       O   -12.02011  -12.76231    6.16383
      H1   -12.42705  -13.63927    6.08784
       H   -13.23269  -18.34875   -3.11485
       O   -12.39192  -18.29951   -3.60258
      H1   -12.51176  -17.73345   -4.32802
       H    -8.10128  -19.09976   -0.62739
       O    -8.41994  -18.26105   -0.96911
      H1    -7.86199  -18.06385   -1.74212
       H   -14.66545  -13.82072    5.17637
       O   -13.99175  -14.46873    5.45541
      H1   -14.41866  -14.88080    6.27029
       H   -12.10460  -16.24255   -1.00219
       O   -11.56785  -15.96248   -1.76850
      H1   -11.94612  -16.58346   -2.39946
       H   -13.75473  -16.79353    3.21905
       O   -13.06864  -16.26056    3.53564
      H1   -13.33692  -15.85082    4.36115
       H   -15.53949  -15.45861   -4.10302
       O   -16.42445  -15.95008   -3.98889
      H1   -16.11637  -16.65053   -3.42178
       H   -10.63228   -8.98504   -2.25806
       O   -11.14463   -9.37307   -1.55322
      H1   -11.82447   -9.93032   -2.03385
       H   -11.00938  -13.58227   -3.61163
       O   -10.33954  -13.79707   -2.91980
      H1   -10.69085  -14.62798   -2.47874
       H   -13.89452  -15.47628   -0.10414
       O   -13.58632  -16.29099    0.34895
      H1   -13.55023  -15.91011    1.21010
       H   -13.44080  -15.74549   -5.14112
       O   -13.09239  -16.54803   -5.59658
      H1   -12.81565  -16.25358   -6.51237

