135
frame 7 | Written by MDAnalysis XYZWriter (release 2.4.3)
       H    18.13394   -9.29849   -9.12990
       O    18.05926  -10.09339   -8.58151
      H1    17.88653   -9.80389   -7.69997
       H    10.82924   -9.41084  -11.52848
       O    10.88495   -8.47792  -11.33913
      H1    11.14398   -8.14492  -12.21054
       H    11.86225   -7.86393  -10.11044
       O    12.52101   -7.59132   -9.47898
      H1    13.31823   -8.16771   -9.57655
       H    18.50066   -5.76100   -4.22361
       O    19.43172   -5.89585   -3.95002
      H1    19.50166   -5.80624   -3.03984
       H    12.54285   -1.62950   -9.16042
       O    11.74124   -1.62987   -8.54387
      H1    10.95200   -1.37703   -9.04714
       H    16.80518  -11.54736   -4.32543
       O    16.56686  -11.05125   -3.51858
      H1    16.10409  -10.16216   -3.70143
       H    16.89439   -5.49193  -11.62089
       O    16.47306   -6.01115  -12.27721
      H1    16.34378   -6.91256  -11.93639
       H    15.45974   -5.43210  -13.81887
       O    14.74581   -5.51662  -14.53773
      H1    13.86556   -5.79085  -14.07926
       H    18.89936   -2.25712   -8.15163
       O    19.58780   -1.68349   -8.47556
      H1    19.89858   -2.35503   -9.14915
       H    14.22080  -11.77002   -7.34628
       O    14.57833  -11.07743   -6.72567
      H1    15.53319  -11.11276   -6.90226
       H    11.22860   -4.50157   -9.22630
       O    10.67871   -4.51585  -10.01970
      H1    11.11897   -3.95864  -10.60157
       H    14.36143   -8.85994   -1.90606
       O    14.90650   -8.63626   -2.65851
      H1    15.53913   -7.98378   -2.33693
       H    11.65539   -1.99589  -11.78712
       O    11.77408   -2.94316  -12.07136
      H1    12.71056   -2.97136  -12.17253
       H    17.88095   -1.76561  -12.28388
       O    18.01482   -2.40042  -13.03419
      H1    18.99361   -2.54334  -13.08012
       H    14.16684   -2.38136  -10.94310
       O    13.88065   -2.62215  -10.04112
      H1    13.86980   -3.52877   -9.97109
       H    18.70987   -8.86742  -13.81430
       O    18.60775   -8.26503  -14.55038
      H1    17.65993   -8.02827  -14.60515
       H    13.13948   -9.75652   -5.23883
       O    13.37813   -8.84945   -5.09183
      H1    13.87558   -8.75499   -4.23696
       H    14.09911   -9.94312   -8.34799
       O    14.53524   -9.16179   -8.85071
      H1    14.80055   -8.63847   -8.06406
       H    16.86893   -4.25441   -3.87955
       O    16.71943   -5.14748   -4.23106
      H1    15.73132   -5.30093   -4.25186
       H    17.67361   -3.58808  -11.33158
       O    17.58594   -4.19549  -10.55782
      H1    17.18206   -3.72956   -9.79499
       H    14.83081   -8.05402   -6.12023
       O    15.59802   -8.00795   -6.73025
      H1    15.86095   -7.10423   -7.00406
       H    16.81718   -3.18345   -7.54132
       O    16.41780   -2.72428   -8.27474
      H1    15.52297   -3.10401   -8.47113
       H    18.18469   -1.73205   -3.66209
       O    17.58501   -2.45586   -3.74615
      H1    16.75348   -2.07830   -3.53326
       H    13.58618   -6.06596   -9.05630
       O    14.07139   -5.28047   -9.00796
      H1    13.48005   -4.74683   -8.38083
       H    11.52504   -4.64258   -7.09017
       O    11.97450   -4.11755   -7.80834
      H1    11.84229   -3.15737   -7.81394
       H    15.73608   -9.75284  -11.88076
       O    15.59166   -8.86265  -11.50535
      H1    15.51055   -9.04116  -10.51271
       H    13.00833   -7.35366  -13.07664
       O    12.35596   -7.88733  -13.63543
      H1    12.52233   -8.82645  -13.51295
       H    13.90619   -5.80560   -3.31301
       O    14.10216   -5.97329   -4.26590
      H1    13.30613   -5.78821   -4.77433
       H    19.14480   -7.75580   -9.88503
       O    18.16145   -7.85539   -9.93939
      H1    18.00119   -8.37009  -10.75316
       H    11.74295   -3.03486   -4.15717
       O    12.73783   -2.99235   -4.16310
      H1    12.89312   -2.39712   -4.92706
       H    19.72526  -10.67842  -12.83867
       O    18.88102  -10.20573  -12.58801
      H1    18.11293  -10.73750  -12.81226
       H    14.21912   -6.32318  -11.68042
       O    13.34511   -5.99803  -12.07456
      H1    12.67379   -6.04376  -11.38754
       H    16.94784  -11.41445   -9.36785
       O    16.56523  -12.29589   -9.22921
      H1    16.04541  -12.50235  -10.02450
       H    18.37551   -4.11676  -14.06872
       O    18.91193   -4.83523  -14.47806
      H1    18.54419   -5.64671  -14.12599
       H    16.50408   -7.51978  -16.26096
       O    16.12223   -7.72254  -15.39138
      H1    15.61633   -6.93069  -15.11818
       H    16.08482   -0.98722   -7.86114
       O    15.57427   -0.24228   -7.63567
      H1    14.75118   -0.53603   -7.19228
       H    16.80825   -8.99333   -6.09447
       O    17.44977   -9.70718   -5.88885
      H1    18.08955   -9.31192   -5.26622
       H    17.63606    0.04359  -10.47345
       O    18.15431   -0.68958  -10.94929
      H1    18.66407   -1.05007  -10.23590
       H    15.42826   -2.09711  -12.84587
       O    14.49341   -2.00272  -12.60813
      H1    14.20211   -1.09893  -12.76469
       H    11.53049   -8.50678   -8.00418
       O    10.61821   -8.81384   -7.75920
      H1    10.63623   -9.23299   -6.83778
       H    11.00092   -5.49678   -5.00769
       O    11.33796   -5.83100   -5.81980
      H1    10.68728   -6.53231   -6.17384
       H    18.23743   -3.55407   -5.56615
       O    18.49151   -3.66750   -6.44951
      H1    18.21259   -4.61122   -6.63549
       H    16.79924   -6.56207   -8.76942
       O    16.31947   -6.00163   -8.12449
      H1    15.52795   -5.71473   -8.59344
       H    16.84925  -12.66883  -12.97585
       O    16.60365  -11.70225  -12.94236
      H1    15.84362  -11.62350  -13.50405
       H    11.82068   -8.57479   -4.42872
       O    11.11532   -8.26632   -3.80486
      H1    10.43929   -7.88454   -4.35048

