135
frame 0 | Written by MDAnalysis XYZWriter (release 2.4.3)
       H   -10.49317  -15.75235   12.43743
       O   -11.30787  -15.36414   12.81452
      H1   -11.73240  -14.84968   12.10141
       H   -12.73023   -8.59126   17.13647
       O   -12.88012   -7.87543   17.81119
      H1   -13.38914   -8.34168   18.46295
       H   -10.90235   -9.90633   16.07403
       O   -11.48310  -10.39752   16.76381
      H1   -12.30179  -10.45329   16.30227
       H    -7.64857   -9.06462    9.17356
       O    -8.63460   -8.96743    9.26155
      H1    -8.89016   -9.86621    9.36881
       H   -10.86162  -11.23049   19.99072
       O   -11.62293  -11.51302   19.48700
      H1   -11.63273  -10.93701   18.70549
       H   -14.29664   -9.65240   15.43841
       O   -14.28531  -10.30722   16.18174
      H1   -15.17912  -10.22622   16.53967
       H   -11.84301  -14.07578   16.67757
       O   -11.25358  -13.72363   17.38093
      H1   -11.52638  -12.80841   17.67661
       H   -11.31615   -8.34731   14.31077
       O   -10.65257   -8.92515   14.72957
      H1   -10.68875   -9.65100   14.12119
       H    -7.76875  -14.25564   15.99183
       O    -7.30436  -14.91811   15.44732
      H1    -7.30216  -14.68043   14.52384
       H   -15.10884  -12.32848   16.35889
       O   -15.73549  -13.01344   16.54552
      H1   -15.53074  -13.62192   15.79296
       H   -10.53733  -11.22140    9.50559
       O    -9.72928  -11.49899    9.14550
      H1    -9.84332  -11.04228    8.26695
       H    -8.16917  -11.80755   10.59523
       O    -7.46616  -11.95151   11.27793
      H1    -7.59440  -11.41892   12.10428
       H   -12.84932  -11.12271    9.99125
       O   -12.12453  -11.59649   10.48050
      H1   -12.49642  -12.46410   10.72876
       H    -9.43168  -17.52026   12.39175
       O    -8.99366  -16.86037   11.87000
      H1    -9.40761  -16.93015   11.01257
       H    -6.80873   -6.78044   11.35909
       O    -6.35876   -6.06508   10.92118
      H1    -6.01321   -6.51679   10.13806
       H   -12.50596   -6.31326   10.44987
       O   -11.91164   -6.89745   10.93317
      H1   -11.41030   -7.40073   10.34238
       H    -7.57701  -13.40168   12.33256
       O    -7.80627  -14.27145   12.83776
      H1    -8.28282  -14.84750   12.20771
       H   -10.54536   -6.38838   17.31009
       O    -9.70926   -6.40570   16.81531
      H1    -9.08630   -5.91657   17.33266
       H   -12.83029  -15.26884    8.48695
       O   -12.15221  -15.83929    8.92322
      H1   -12.62555  -16.45675    9.52132
       H   -13.61827  -11.66476   14.94317
       O   -13.29832  -12.30967   14.35236
      H1   -12.31676  -12.14795   14.30311
       H    -3.65307   -9.91368   11.31394
       O    -3.31295  -10.80030   11.08978
      H1    -4.00377  -11.36773   10.65798
       H    -8.60179   -7.60640   16.04845
       O    -7.75633   -8.13815   16.10641
      H1    -7.93389   -8.83528   15.49365
       H   -14.60663  -11.53522   13.03583
       O   -14.96842  -10.85829   12.41427
      H1   -15.89241  -11.08749   12.10527
       H    -9.57606  -15.97295   17.18778
       O    -9.12751  -16.52481   16.61147
      H1    -8.41420  -15.88320   16.17978
       H    -4.37453  -14.98520   11.49551
       O    -4.66976  -14.38141   12.19517
      H1    -5.53636  -14.61437   12.42331
       H   -10.25060  -11.65599    6.46066
       O   -10.18350  -10.73577    6.60018
      H1    -9.42275  -10.49193    6.01596
       H   -12.23267   -7.00898   12.60407
       O   -12.28347   -7.20762   13.57042
      H1   -12.78799   -6.42237   13.87071
       H   -14.76196  -11.67648   10.51070
       O   -14.89650  -11.61814    9.52383
      H1   -14.63943  -10.73919    9.23123
       H    -7.67722  -10.14324   14.00589
       O    -8.14595  -10.28576   13.18738
      H1    -8.10377   -9.36988   12.82260
       H    -8.85981  -12.65302   15.37770
       O    -8.66829  -12.79082   16.28178
      H1    -9.43298  -13.31194   16.59917
       H   -13.14472  -14.08904   14.95154
       O   -12.62645  -14.79503   15.25623
      H1   -12.04394  -15.00584   14.50504
       H    -8.22261   -8.26306   10.77581
       O    -8.21730   -7.84924   11.64579
      H1    -8.65001   -6.97597   11.56551
       H   -12.08423   -9.13156    6.98206
       O   -12.72116   -9.38639    6.27501
      H1   -12.80844   -8.60970    5.76504
       H    -5.36575  -10.48835   15.03925
       O    -6.26332  -10.59916   15.33638
      H1    -6.20663  -10.86674   16.25731
       H    -4.86558   -8.63499    8.73018
       O    -5.62724   -9.23744    8.71257
      H1    -5.29484  -10.09190    9.05681
       H   -12.69643  -14.58372   10.32772
       O   -12.89600  -14.07376   11.08187
      H1   -13.75394  -14.36605   11.43534
       H    -9.26828  -13.49215    9.30113
       O    -9.01952  -14.40494    9.58308
      H1    -8.31796  -14.63410    8.96535
       H   -10.35060   -5.48329   13.43231
       O   -10.13897   -5.54149   12.48015
      H1   -10.83041   -6.03305   12.08247
       H   -10.09736  -11.17734   12.76184
       O   -11.03398  -11.25799   13.08324
      H1   -11.49356  -11.04305   12.23672
       H    -6.74204   -5.41114   14.46762
       O    -6.70364   -5.60243   15.35927
      H1    -6.84753   -6.54507   15.42141
       H    -4.43355  -14.85800   16.91039
       O    -4.64578  -14.82948   15.95830
      H1    -5.61383  -14.61761   15.90097
       H   -10.19734   -8.40087    8.30177
       O   -11.12658   -8.28695    8.37580
      H1   -11.24317   -7.49636    7.84701
       H    -5.94672  -11.93084   10.31706
       O    -5.31706  -11.96902    9.49145
      H1    -5.36520  -12.80473    9.02628
       H    -7.27122  -11.83318   17.57132
       O    -6.65832  -11.42218   18.20408
      H1    -6.16091  -12.20356   18.46067
       H   -14.47601   -9.43905   13.16312
       O   -14.38510   -8.80807   13.88474
      H1   -13.59217   -8.24941   13.72355

