135
frame 0 | Written by MDAnalysis XYZWriter (release 2.4.3)
       H     8.20204  -11.01260   10.80171
       O     8.76839  -11.67326   10.39092
      H1     8.32338  -12.47501   10.70115
       H    11.62335   -7.65926   10.82613
       O    10.73225   -7.26132   10.92036
      H1    10.97414   -6.41091   11.27565
       H    14.07006   -7.98516   11.40223
       O    13.45323   -8.14476   10.66594
      H1    13.79824   -7.57357    9.98407
       H    18.45538  -11.28110    8.59856
       O    17.72750  -11.51229    9.24187
      H1    18.10019  -12.26504    9.80643
       H    14.55240   -6.61656    4.45469
       O    13.76318   -6.06655    4.55963
      H1    13.38272   -6.37016    5.41839
       H    13.12877  -11.79985   14.77905
       O    13.00695  -11.13991   14.09248
      H1    12.46353  -11.56154   13.42129
       H    13.88310  -10.29576    7.77102
       O    14.14280  -10.46565    6.81234
      H1    14.33161  -11.42427    6.86882
       H    12.40096   -4.59615    6.75555
       O    13.24751   -4.24519    7.02335
      H1    13.50938   -3.69295    6.32687
       H    14.96996    0.17551   10.97903
       O    14.45030   -0.52738   11.45696
      H1    14.30866   -1.25243   10.83734
       H    13.01424  -14.85423    9.95432
       O    13.10098  -13.90049   10.12374
      H1    12.18519  -13.58819    9.88127
       H    18.76949   -4.79813    7.23019
       O    18.58650   -4.08564    7.87319
      H1    17.80855   -4.37742    8.41643
       H    11.94992   -9.31905    4.47448
       O    12.26560   -9.54956    3.58920
      H1    12.53723  -10.46361    3.60907
       H    14.88895   -2.27733    8.41262
       O    14.80134   -2.59929    9.32140
      H1    15.50313   -3.23404    9.44987
       H    12.89280   -7.31846   15.12694
       O    12.26803   -6.58838   15.19137
      H1    11.55742   -6.99712   15.62155
       H    12.07830   -4.70334   13.88097
       O    11.92981   -3.74872   13.97943
      H1    12.08349   -3.31523   13.11285
       H    17.02090   -7.29250    3.99181
       O    16.13166   -7.78215    3.98245
      H1    16.07931   -8.08753    4.87314
       H    14.19431   -4.35808    4.51656
       O    14.35875   -3.36685    4.55234
      H1    15.11452   -3.29997    5.13016
       H    13.21421   -3.18869   14.90621
       O    13.68132   -2.72789   15.61924
      H1    12.96886   -2.36484   16.11839
       H    13.50544   -9.65930   10.14238
       O    13.69164  -10.48807    9.63737
      H1    12.96457  -11.10382    9.71532
       H    14.25033   -9.00176   15.69169
       O    13.92619   -8.74266   14.83189
      H1    13.53241   -9.58217   14.51729
       H    14.06779   -1.04719    5.89847
       O    14.06855   -1.23713    6.80674
      H1    13.20126   -1.54680    7.00022
       H    15.91640   -5.24383    9.13655
       O    16.68083   -4.83199    9.51515
      H1    17.12383   -5.58120    9.90808
       H    10.98190  -12.00928   11.49373
       O    11.60750  -12.46575   12.09130
      H1    12.32128  -12.75207   11.48412
       H     9.13873   -8.91337   13.20091
       O     8.80302   -8.38713   12.46092
      H1     9.55779   -7.98069   12.06920
       H    18.94270  -10.94833    5.90359
       O    18.64466  -10.24076    5.27865
      H1    17.67022  -10.38204    5.21811
       H    13.99867   -5.87936    8.20027
       O    14.59688   -6.50360    8.64400
      H1    14.88892   -7.13440    7.91038
       H    15.23336  -13.19201    9.17494
       O    15.61606  -12.84956    8.31992
      H1    16.39830  -12.34241    8.69000
       H    11.16018   -6.08358    7.13921
       O    11.73333   -6.53819    6.48656
      H1    11.31068   -6.32223    5.63272
       H    14.63988   -7.56152   13.57645
       O    15.14508   -7.50443   12.70445
      H1    15.53050   -6.59743   12.69344
       H    15.43643  -12.30314   12.11750
       O    15.37941  -13.26529   12.07201
      H1    14.68007  -13.48469   11.48810
       H    10.92591   -1.92257    8.20063
       O    10.22367   -1.56412    7.65520
      H1     9.88626   -2.34670    7.19686
       H    18.57461   -9.09447    6.40872
       O    18.38372   -8.48630    7.13422
      H1    18.73588   -7.63582    6.83354
       H    17.97507   -9.00452   13.99506
       O    17.94293   -9.86783   13.52530
      H1    17.33394   -9.72070   12.81799
       H     9.36848   -6.04397    8.45014
       O    10.27445   -5.90985    8.57979
      H1    10.56373   -6.50385    9.29710
       H     9.69376   -9.74992   15.13015
       O     9.41149  -10.38515   14.48287
      H1    10.12098  -11.00288   14.34381
       H    18.42553   -7.24976   11.29889
       O    18.28492   -6.33897   11.59720
      H1    17.87271   -6.52280   12.46766
       H    15.26705   -9.24513    6.88047
       O    15.62175   -8.31137    6.83936
      H1    16.58127   -8.31172    6.97800
       H    18.71905   -6.48108   14.62827
       O    18.02629   -6.83868   15.20371
      H1    18.41008   -7.33453   15.91573
       H    16.17876   -4.56524   13.89194
       O    16.16767   -4.72319   12.93379
      H1    16.92054   -4.24882   12.55017
       H    11.54269   -3.24693    9.93033
       O    11.98260   -2.42790    9.54155
      H1    12.88101   -2.71186    9.45545
       H    15.30139  -10.32546   10.94967
       O    15.82526  -10.32098   11.76599
      H1    15.41895   -9.71631   12.33501
       H    18.38372   -8.42166    8.96381
       O    18.43159   -8.65550    9.92022
      H1    18.17244   -9.63978    9.93115
       H    10.13851   -4.84902    9.99997
       O    10.42705   -4.47341   10.80762
      H1     9.64173   -4.26842   11.43229
       H    10.11602  -12.17930    9.15985
       O    11.00356  -12.45373    8.81891
      H1    10.86424  -13.08133    8.12182
       H    11.08262   -8.08887    6.29595
       O    10.91629   -9.02468    5.96750
      H1    11.55916   -9.55803    6.43371

