135
frame 2 | Written by MDAnalysis XYZWriter (release 2.4.3)
       H    -5.58477   10.01715  -13.55861
       O    -5.53416   10.65988  -12.88387
      H1    -6.24669   10.53914  -12.27731
       H    -4.86443   13.38831  -11.06236
       O    -5.44261   13.27378  -11.81515
      H1    -5.29638   12.37209  -12.12922
       H    -5.91793   14.02785  -15.31567
       O    -5.33893   13.93044  -16.04717
      H1    -5.15575   14.87334  -16.30560
       H    -2.99242   17.54258  -13.71739
       O    -2.81220   18.44903  -13.92009
      H1    -2.36954   18.42282  -14.80366
       H    -4.51496   18.88218  -13.80129
       O    -5.45949   19.12638  -13.79485
      H1    -5.74239   19.01235  -12.85764
       H   -10.90610   16.48826   -9.12797
       O   -11.11206   16.64767  -10.10595
      H1   -10.21719   16.89167  -10.41016
       H     0.48627   15.24777  -13.01816
       O    -0.33957   15.61906  -13.23071
      H1    -0.23018   15.69941  -14.18221
       H    -4.28957   16.81496  -17.97872
       O    -3.86940   16.01465  -17.83388
      H1    -4.37486   15.26966  -18.16639
       H    -2.38209   18.12056   -5.27115
       O    -1.74317   17.56015   -4.81552
      H1    -0.96910   18.06211   -4.58019
       H    -1.47732   18.40907  -17.21295
       O    -1.71435   18.06691  -16.33781
      H1    -1.70939   17.12199  -16.37254
       H    -1.17351   12.24147  -13.81531
       O    -0.83457   12.78606  -13.10777
      H1    -1.32274   13.63566  -13.22984
       H   -10.88527   15.44715  -13.77992
       O   -11.02506   14.50751  -13.98728
      H1   -10.50227   14.43743  -14.81485
       H    -7.38022   17.44769  -18.32252
       O    -7.30393   18.23041  -17.77363
      H1    -7.91802   18.95183  -18.07043
       H    -7.29362   13.74448  -11.37985
       O    -7.99069   13.80473  -10.65162
      H1    -8.91628   14.03419  -10.97682
       H    -9.85575   17.47035  -13.09836
       O    -9.51973   16.64836  -12.75076
      H1    -8.56435   16.58994  -12.89018
       H   -11.03784   16.76652   -6.50851
       O   -11.49948   16.46789   -7.28877
      H1   -12.34963   16.94942   -7.24946
       H     0.13256   16.46822   -8.08919
       O     0.55751   16.65563   -8.91904
      H1     1.10100   17.45817   -8.81744
       H    -3.88977    9.68264   -9.31456
       O    -4.23160   10.40566   -8.83472
      H1    -3.52184   11.09435   -8.68404
       H    -1.08225   12.70257   -6.16449
       O    -1.10301   13.18181   -7.00083
      H1    -1.91242   12.89822   -7.51086
       H     0.94308   17.28263  -13.38780
       O     1.63271   17.80395  -13.73109
      H1     1.27171   18.33513  -14.46933
       H    -9.69818   18.34992   -5.17408
       O    -9.75991   17.38004   -5.12608
      H1    -9.04554   17.09280   -5.69290
       H    -6.42906   19.01955   -9.34400
       O    -7.29594   18.86977   -9.80594
      H1    -7.30916   17.86831   -9.79557
       H    -6.12916   16.57555  -12.70609
       O    -6.98499   16.34711  -13.17327
      H1    -7.05901   16.65093  -14.10000
       H    -7.86201   17.45891  -16.36493
       O    -8.26114   16.92450  -15.69230
      H1    -8.91007   17.54562  -15.29860
       H     0.11011   11.75103  -10.27367
       O    -0.75503   11.86155  -10.66194
      H1    -0.52991   12.31013  -11.49470
       H    -4.94422   15.83231   -5.06342
       O    -5.77641   16.31838   -5.18029
      H1    -6.08216   16.55843   -4.24072
       H    -8.33323   16.09753   -8.71976
       O    -8.28196   16.44646   -9.62418
      H1    -8.27889   15.67195  -10.15992
       H    -7.89580   14.87079   -7.05278
       O    -7.86723   15.81890   -6.91955
      H1    -7.14896   15.94739   -6.28927
       H    -9.10808   15.29907  -15.83159
       O    -9.42178   14.41134  -16.05433
      H1    -8.84583   13.82302  -15.46058
       H    -3.20310   15.70467  -16.10662
       O    -2.41564   15.53369  -15.60096
      H1    -2.69984   15.42350  -14.67045
       H    -6.99213   12.50863  -13.85525
       O    -7.48929   13.33311  -14.01725
      H1    -7.06661   14.04839  -13.58068
       H    -7.03119   13.20406   -8.59325
       O    -6.97826   13.07874   -7.63228
      H1    -7.58492   12.27206   -7.49007
       H    -1.19053   16.28534   -5.93468
       O    -0.47268   15.75558   -6.40397
      H1    -0.89484   14.87057   -6.61621
       H    -4.06933   19.07319   -5.74902
       O    -4.01231   18.25393   -6.26639
      H1    -4.73918   17.72548   -5.90417
       H   -11.03021   18.53095  -14.74441
       O   -10.13369   18.78708  -14.98991
      H1    -9.89555   19.57088  -14.44406
       H   -11.35358   19.52604  -11.24097
       O   -11.76156   19.46661  -10.34669
      H1   -11.85889   18.51462  -10.17432
       H    -3.77440   15.26403   -7.71862
       O    -3.97963   15.13263   -8.66718
      H1    -3.33398   15.73283   -9.13342
       H    -2.00789   16.00205  -12.75565
       O    -2.95211   15.94488  -13.00933
      H1    -3.55568   15.92860  -12.24383
       H   -10.71747   14.13864  -12.21347
       O   -10.57507   14.22986  -11.25551
      H1   -10.84636   15.13299  -11.02600
       H    -4.05241   13.74626   -4.91679
       O    -3.47418   14.57782   -4.82113
      H1    -3.11241   14.53840   -3.93996
       H    -2.02770   12.87327   -9.41113
       O    -2.80514   12.67674   -8.89803
      H1    -3.27773   13.49081   -8.80445
       H    -4.95566   16.01687  -10.66902
       O    -5.02718   16.71128  -11.34205
      H1    -5.13241   17.46215  -10.75252
       H    -8.27844   12.03685  -11.13476
       O    -7.99039   11.16685  -11.43527
      H1    -8.19146   10.58691  -10.65978
       H    -4.62053   20.27591   -8.40597
       O    -4.61007   19.30748   -8.61727
      H1    -4.38076   18.84163   -7.76821
       H    -1.18138   16.48472   -9.81504
       O    -2.09420   16.63852   -9.91251
      H1    -2.24567   17.57177   -9.64003

