138
frame 10 | Written by MDAnalysis XYZWriter (release 2.4.3)
       H     7.90423  -12.88466    6.02997
       O     8.46395  -13.66905    6.21475
      H1     8.21519  -13.89379    7.13013
       H     5.16935   -7.99765    9.86546
       O     5.85542   -7.92663   10.59748
      H1     6.40801   -8.73186   10.46810
       H     7.02349  -18.21945   14.45726
       O     6.76601  -17.30346   14.21776
      H1     5.85236  -17.15229   14.39355
       H     8.58227  -13.32124   12.55350
       O     9.31802  -13.86475   12.93512
      H1     8.93244  -14.32676   13.70155
       H     7.23985  -10.96218   10.54813
       O     7.07039  -10.22365    9.87158
      H1     7.92037  -10.22846    9.31226
       H     1.49858  -13.25520    8.31116
       O     1.97968  -12.47371    8.67142
      H1     2.00305  -11.77405    7.92515
       H     1.07237  -11.37199   11.69262
       O     1.29470  -12.33100   11.53936
      H1     1.11776  -12.41594   10.60164
       H     1.96626   -6.72749   14.54162
       O     2.83744   -6.82180   15.00449
      H1     3.51558   -6.77322   14.26951
       H     4.61766  -14.06739   11.00186
       O     5.23941  -14.47916   11.67236
      H1     5.74246  -15.13550   11.15326
       H    -0.38788  -13.34637    4.94463
       O     0.34803  -12.79518    5.26313
      H1     1.09871  -13.00671    4.74415
       H     6.18497  -11.33278    9.00640
       O     5.61491  -12.03525    8.60927
      H1     6.04437  -12.86398    8.69485
       H    -1.33533   -8.81739   12.98919
       O    -0.91921   -7.97107   12.80310
      H1    -1.22151   -7.75382   11.92213
       H     8.12687  -16.02138   11.18917
       O     8.89763  -15.50333   10.84530
      H1     9.05514  -14.83038   11.56341
       H    -1.61809  -16.21111    9.24229
       O    -1.56845  -15.26154    9.17141
      H1    -2.07670  -14.87915    8.50240
       H    -1.43367  -10.85175   13.23024
       O    -1.74712  -10.20521   13.91792
      H1    -1.10567  -10.08240   14.60973
       H     3.79091  -17.41340    8.31008
       O     3.53427  -17.40571    9.24707
      H1     4.02716  -18.15368    9.64900
       H     0.18319  -10.57800   16.19564
       O     0.14384   -9.66481   15.90819
      H1    -0.45108   -9.21639   16.51654
       H     4.13610  -10.80350   15.06203
       O     4.68602  -10.26945   14.44168
      H1     4.14208   -9.94205   13.68821
       H    -0.38670  -10.34902    7.55777
       O    -0.83923  -10.39930    6.71708
      H1    -0.27790  -10.96021    6.14098
       H     0.57763   -8.80391   12.08581
       O     1.08727   -9.51591   11.75066
      H1     2.00556   -9.27164   11.76305
       H     5.33438  -11.78889    5.70276
       O     4.59325  -12.15499    6.18551
      H1     4.95817  -12.20457    7.12274
       H     3.20271  -10.88318   16.65623
       O     3.66206  -11.75969   16.63872
      H1     4.46224  -11.58615   17.11537
       H     7.53747  -12.02486   12.54238
       O     7.47924  -12.43876   11.64406
      H1     6.67161  -12.97552   11.69522
       H     2.80163  -16.80745   12.18853
       O     2.91315  -16.14311   12.86750
      H1     3.70257  -15.66173   12.54042
       H    -0.25665  -12.80535   12.44858
       O    -1.20386  -12.72965   12.57329
      H1    -1.46037  -13.37224   11.91427
       H     4.45552   -7.99995    8.22387
       O     3.79302   -8.48115    8.78578
      H1     3.23591   -7.68025    9.05774
       H     0.27608   -9.53748   10.09789
       O    -0.13827   -9.50630    9.24097
      H1    -0.90648   -8.86650    9.35116
       H     4.70151   -6.11188   12.78762
       O     4.86137   -6.84490   13.40448
      H1     5.04112   -7.66371   12.94721
       H     0.13568  -14.73050    7.96649
       O     0.82633  -14.56511    7.32047
      H1     0.51280  -13.93039    6.70134
       H     4.11729   -8.91136   11.18617
       O     3.79375   -9.48504   11.94539
      H1     3.94563  -10.42758   11.60815
       H     0.99612   -7.68229    6.15407
       O     1.39463   -8.32322    5.53902
      H1     1.82784   -9.00363    6.12676
       H     2.44405  -14.32424   14.43659
       O     1.65928  -14.39638   15.03146
      H1     1.61819  -15.34680   15.13617
       H     3.36688  -10.69283    6.83227
       O     2.55017  -10.24027    7.06123
      H1     2.87888   -9.69601    7.78790
       H     3.51042  -15.52359    8.98890
       O     3.77290  -14.57578    9.02576
      H1     2.99810  -14.08713    8.67360
       H     4.11456  -12.42539   14.47570
       O     3.96070  -13.25896   14.05826
      H1     4.48829  -13.30360   13.29242
       H     7.65110  -11.38956   15.13373
       O     7.38453  -11.14033   14.23115
      H1     6.55529  -10.60927   14.31925
       H     1.57777   -6.44632    8.29977
       O     2.30427   -6.28893    8.95677
      H1     1.82244   -5.79437    9.65125
       H     6.78210  -15.02561    8.69745
       O     7.37935  -14.24450    8.81752
      H1     7.90333  -14.57207    9.54016
       H     3.60871  -14.70362   16.93602
       O     4.38579  -14.84151   16.34365
      H1     4.24003  -14.26996   15.56785
       H     1.48690  -16.91345   13.86469
       O     1.20349  -17.09861   14.77248
      H1     0.21218  -17.18615   14.75993
       H     3.14402  -12.17744   11.10147
       O     4.05535  -11.93982   10.93586
      H1     4.26518  -12.07509    9.99805
       H     7.30647  -17.83845   11.44878
       O     6.72669  -17.02407   11.57584
      H1     6.64260  -16.89202   12.55493
       H     4.14968  -16.50175   15.75776
       O     4.14926  -17.15087   15.02328
      H1     3.63945  -16.63428   14.35305
       H     2.04190   -9.22727   16.29903
       O     2.98814   -9.17049   16.52872
      H1     3.54156   -9.13828   15.77147
       H    -1.62658  -13.36402   14.36025
       O    -2.15695  -13.64432   15.13043
      H1    -1.56434  -13.68523   15.88604
       H     1.29784  -12.92435   15.98325
       O     1.08830  -12.23189   16.70233
      H1     2.03323  -12.02788   16.89967

