138
frame 6 | Written by MDAnalysis XYZWriter (release 2.4.3)
       H     9.97183    5.42114  -11.80642
       O    10.48682    5.30238  -11.03784
      H1     9.84066    4.92529  -10.38772
       H     8.00176    8.98930  -12.25107
       O     8.81166    9.44305  -12.50492
      H1     9.38609    9.23514  -11.77103
       H    12.31269    9.57643  -13.73635
       O    12.07599   10.51607  -13.80252
      H1    12.85397   10.99377  -14.20867
       H    15.58534    2.78468  -17.56613
       O    16.36526    3.25300  -17.89154
      H1    16.41998    2.96772  -18.83694
       H    12.95990   11.45834  -17.85015
       O    13.47467   12.28869  -17.72472
      H1    13.58892   12.27160  -16.79324
       H    13.62897    1.59217  -17.71697
       O    14.04328    2.05890  -16.97044
      H1    14.32479    1.34885  -16.33130
       H     6.91939    0.38270  -19.20947
       O     6.42405    0.83811  -18.50990
      H1     5.74627    1.34624  -18.90970
       H    13.92689    6.39240  -16.67533
       O    14.53229    6.89574  -17.19108
      H1    15.35064    6.34438  -17.31367
       H    12.97862    3.34724  -12.96494
       O    12.78906    3.40708  -12.06403
      H1    11.86530    3.64742  -12.00272
       H     3.14904    5.87537  -19.51404
       O     2.25699    5.54800  -19.46439
      H1     1.69875    6.29728  -19.06971
       H     9.48114   -0.63220  -17.82695
       O     9.90663    0.05501  -17.27935
      H1    10.17330   -0.35446  -16.44312
       H     7.25681    8.42099  -16.06581
       O     8.06126    8.83917  -16.34749
      H1     7.99274    8.95659  -17.28847
       H    11.71708    6.40751  -15.23318
       O    12.36023    5.96631  -15.71939
      H1    12.36518    5.09051  -15.38020
       H    14.17150    8.04860  -12.93726
       O    13.25027    7.82867  -13.12060
      H1    12.82917    7.79682  -12.29922
       H     3.80600    8.77111  -16.85475
       O     4.02290    8.06013  -17.53819
      H1     4.76611    8.47097  -18.02846
       H     5.01138    3.09719  -14.33156
       O     4.90259    2.12513  -14.22116
      H1     5.32246    1.51972  -14.84450
       H     8.78782    3.90434  -14.46641
       O     8.24991    4.51287  -13.94727
      H1     8.47369    5.33640  -14.30758
       H     9.83503    2.10015  -16.41558
       O     9.76745    2.55170  -15.52122
      H1     9.40983    1.84767  -14.93184
       H    14.78792    8.78469  -16.24255
       O    14.99581    9.70526  -15.94660
      H1    15.43831   10.05803  -16.73862
       H     4.62114    5.46098  -12.95010
       O     4.72595    4.57021  -12.52304
      H1     3.85412    4.47326  -12.07733
       H     6.42462   13.43170  -17.01856
       O     6.52327   13.12745  -17.90623
      H1     7.36385   12.63886  -17.88964
       H     9.72141   12.65893  -17.29724
       O     9.05015   11.93178  -17.35378
      H1     8.79932   11.79866  -16.42026
       H     9.67271    5.51381  -18.73713
       O     9.23216    5.53978  -17.88106
      H1     9.60838    6.30952  -17.38935
       H     7.64628    2.57972  -18.48166
       O     8.01791    3.24132  -19.05682
      H1     8.29740    3.96596  -18.49392
       H     9.42740   10.51736  -18.58782
       O     9.45148    9.73701  -19.11512
      H1    10.39221    9.44431  -19.20993
       H    16.72887    4.90837  -17.73889
       O    17.22620    5.77529  -17.63844
      H1    17.48998    6.22081  -18.51191
       H     8.39635    1.73686  -11.50427
       O     8.88138    2.05385  -12.23614
      H1     8.57035    2.94337  -12.44969
       H     7.11973   -0.03999  -15.48027
       O     6.26075    0.19036  -15.86148
      H1     6.50920    0.31278  -16.77682
       H     6.91876    4.96980  -16.45940
       O     6.21008    4.52761  -16.00007
      H1     6.71918    4.30129  -15.19483
       H    10.60095   11.63546  -13.58201
       O     9.75700   11.90677  -13.21296
      H1     9.39166   11.03937  -12.94729
       H    11.61524    6.79086  -10.43229
       O    12.01689    7.65854  -10.56471
      H1    12.75032    7.63206   -9.96789
       H     9.46855    7.76360  -15.10573
       O    10.10646    7.33078  -14.48792
      H1    10.56100    8.02472  -14.01135
       H     5.45934   11.51668  -18.29820
       O     4.88170   10.98011  -18.85054
      H1     5.44686   10.78683  -19.61116
       H    12.76172    2.83469  -15.76823
       O    12.37151    3.23946  -14.92364
      H1    11.47517    3.05621  -15.17368
       H    12.66132    0.10535  -19.57308
       O    12.29886    0.71478  -18.89865
      H1    11.60599    0.10902  -18.51012
       H     4.97069    3.96508  -16.91808
       O     4.26307    3.50462  -17.48338
      H1     3.62038    4.15872  -17.83888
       H     4.86927   11.17439  -14.96710
       O     5.08862   10.34358  -14.39739
      H1     5.88711   10.56481  -13.98341
       H     4.96522    7.49578  -16.07849
       O     5.57647    7.59006  -15.33218
      H1     5.53907    8.50439  -15.10157
       H     6.94810    6.79403  -11.95382
       O     6.57613    7.55932  -12.42490
      H1     6.00917    7.99314  -11.74912
       H    13.42813    6.93092  -18.64135
       O    13.36090    6.83796  -19.63057
      H1    12.37465    6.78695  -19.80815
       H    10.35018   10.46383  -16.59810
       O    11.02651    9.89170  -16.28886
      H1    11.36695   10.33535  -15.47495
       H    14.07624    5.59736  -13.57552
       O    14.61567    5.02126  -13.07516
      H1    14.07724    4.45869  -12.50619
       H    11.94396    1.33086  -13.57263
       O    11.22936    0.69044  -13.43111
      H1    10.56776    1.19243  -12.96288
       H     6.45421    7.39254  -19.78706
       O     7.00001    7.67929  -19.05055
      H1     7.48845    6.86635  -18.77154
       H     8.43079   11.46990  -14.43510
       O     7.90724   11.31350  -15.22748
      H1     7.96978   10.43183  -15.55731
       H     4.46611    7.39143  -14.11481
       O     3.79027    7.04128  -13.52094
      H1     3.62894    7.76357  -12.94264

