138
frame 4 | Written by MDAnalysis XYZWriter (release 2.4.3)
       H   -11.39215    9.10918    3.88862
       O   -12.18448    9.50222    4.27212
      H1   -12.83032    9.59873    3.52221
       H   -11.61033   17.39096   -0.84264
       O   -11.62135   16.98699    0.02649
      H1   -10.89228   16.33000    0.12055
       H    -2.20749   13.46874    2.32226
       O    -2.44227   14.33172    2.69401
      H1    -3.29634   14.62860    2.35751
       H    -9.22940    8.97494    7.26130
       O    -8.37643    8.62618    7.36424
      H1    -8.50898    7.98235    8.09070
       H    -4.82839   18.45829    4.61695
       O    -5.66307   18.00377    4.39339
      H1    -5.61706   17.88639    3.41596
       H    -7.65885   16.20138    6.24443
       O    -8.15681   15.60703    5.60633
      H1    -7.52772   15.26883    5.01560
       H   -12.02290    8.82278   -0.84298
       O   -11.00475    8.65806   -0.80539
      H1   -10.97108    8.09875    0.03196
       H    -3.50446    9.38083   -0.58701
       O    -4.28194    8.96833   -0.20133
      H1    -4.84494    8.88765   -0.99943
       H   -13.15637   16.18557    0.30141
       O   -13.85235   15.49939    0.36025
      H1   -14.44884   15.79305   -0.33876
       H   -10.27372    6.28132    5.20029
       O    -9.58102    6.23122    4.55048
      H1    -8.74620    6.49504    5.01216
       H    -6.39738   12.27322    7.46783
       O    -5.91084   12.93655    7.96531
      H1    -6.45065   13.73342    7.90176
       H    -8.85632   10.90788    0.02472
       O    -9.76226   11.26711    0.12574
      H1   -10.45135   10.56542    0.06469
       H   -11.27801    9.13613    7.24716
       O   -10.68437    9.65465    6.61885
      H1   -11.10584    9.71044    5.77919
       H    -8.96381   17.85475    4.78355
       O    -8.40160   18.61546    5.14971
      H1    -7.61272   18.56512    4.66748
       H   -11.49408   17.32887    1.90088
       O   -11.71287   17.90383    2.62299
      H1   -11.54227   17.32265    3.38141
       H    -8.01825    8.46888    0.60134
       O    -8.42475    7.61730    0.65469
      H1    -7.70168    6.94056    0.58320
       H    -8.78758   12.37195    2.71112
       O    -8.38798   11.65710    2.24547
      H1    -9.12591   11.50049    1.56496
       H   -12.85956   11.73179    1.76343
       O   -13.47068   11.03451    2.03125
      H1   -13.78799   10.53211    1.25590
       H   -14.90201   13.03287   -1.76951
       O   -14.02879   12.79710   -2.12150
      H1   -13.59867   12.69503   -1.27210
       H   -10.03955   16.10458    4.88966
       O   -10.91880   16.50951    4.86623
      H1   -11.14465   16.88784    5.72758
       H    -4.25639    9.98538    1.37903
       O    -3.89012   10.53376    2.07243
      H1    -4.52038   11.16337    2.37407
       H    -5.63196    8.25335    4.00162
       O    -6.07645    8.56975    3.22984
      H1    -5.50621    9.33173    2.96736
       H    -7.60557   16.32961   -2.00934
       O    -6.72681   16.37012   -1.53642
      H1    -6.37581   15.49052   -1.25152
       H   -10.07089   12.53888   -0.99878
       O   -10.50205   13.36811   -1.34193
      H1   -10.08035   13.58949   -2.20258
       H    -5.64198   14.69075    2.36810
       O    -4.95793   15.24289    1.91428
      H1    -5.32593   16.15695    1.74700
       H    -7.27171    5.93124    5.87040
       O    -7.21551    6.83341    5.61001
      H1    -7.55058    7.28745    6.38296
       H    -5.49044   12.09256    3.87933
       O    -5.67303   12.52745    3.00497
      H1    -6.60273   12.33471    2.79175
       H   -10.65893   15.81452    7.79573
       O    -9.99048   15.08283    7.92208
      H1    -9.47105   14.99722    7.15970
       H    -6.89371   12.37557   -0.68918
       O    -7.12760   11.44873   -0.78686
      H1    -6.81287   11.34868   -1.65601
       H   -10.48305   13.76079    3.73177
       O    -9.69160   14.11652    3.31981
      H1   -10.04474   14.38909    2.44052
       H   -11.94538   11.58723    4.38911
       O   -11.64207   12.44823    4.67461
      H1   -11.04697   12.33669    5.38727
       H    -3.39033   12.26682    0.65542
       O    -3.04231   12.61632   -0.18963
      H1    -2.17863   12.99505    0.08002
       H    -9.03532    9.87004    3.08166
       O    -9.57052    9.08283    3.22556
      H1    -9.02927    8.27759    3.47462
       H    -5.28744   13.23143   -1.33822
       O    -5.55858   14.04041   -0.94012
      H1    -5.00714   14.19971   -0.17181
       H    -6.47147   17.60805    1.25226
       O    -5.53693   17.83227    1.61075
      H1    -5.11091   18.55282    1.08898
       H   -11.85407   13.26330   -0.31222
       O   -12.62432   13.11317    0.26210
      H1   -13.17593   13.92270    0.32857
       H    -7.43978   17.02515   -0.19205
       O    -7.95451   17.22428    0.64917
      H1    -8.39690   18.05948    0.45194
       H   -13.14176   13.49610    5.82666
       O   -13.95588   13.68308    6.40649
      H1   -14.64012   13.24818    5.87624
       H    -9.94231   12.51681    8.27182
       O    -9.73279   12.05779    7.43894
      H1   -10.17978   11.19278    7.41310
       H    -5.41781   16.52233    5.36084
       O    -5.28723   15.74539    5.91766
      H1    -5.14007   16.17494    6.77088
       H    -7.15009    9.98000    6.53401
       O    -7.19046   10.88049    6.21419
      H1    -8.11054   11.07064    6.28679
       H    -5.25009    6.08225    2.32073
       O    -5.96183    5.72060    2.87194
      H1    -6.43083    6.46289    3.17845
       H   -10.99308    5.71031    0.84779
       O   -10.93589    6.62977    1.05983
      H1    -9.96804    6.74135    1.25702
       H    -8.47641    6.81089   -2.40365
       O    -8.57687    7.76579   -2.33157
      H1    -9.16133    7.93750   -1.52891
       H    -9.94669   14.63138    0.01135
       O    -9.68988   15.14200    0.73897
      H1    -9.13906   15.89138    0.45802
       H    -4.57543   12.57744    5.91861
       O    -4.49611   11.79277    5.41919
      H1    -5.34444   11.34443    5.60510

