138
frame 2 | Written by MDAnalysis XYZWriter (release 2.4.3)
       H    -6.78482   -0.04501   12.86042
       O    -5.99284    0.15509   12.24553
      H1    -5.38807   -0.58095   12.37756
       H   -10.19920    5.48085   13.39178
       O   -11.00834    5.64221   13.90635
      H1   -11.43208    6.46094   13.54652
       H   -13.79233    3.51672   12.64410
       O   -13.98660    2.51953   12.71267
      H1   -13.44532    2.28728   13.45389
       H   -13.30284    3.56428   17.01633
       O   -12.40353    3.76489   16.66042
      H1   -11.84556    3.36234   17.37031
       H   -14.60717   -0.27621   15.13207
       O   -13.65909   -0.48734   15.08884
      H1   -13.54454   -0.82319   14.20435
       H   -15.45394    5.52649   10.29642
       O   -14.82398    4.91814    9.95308
      H1   -14.90317    4.26157   10.63089
       H   -14.02464    5.13329   14.27831
       O   -13.90812    5.37650   13.32837
      H1   -12.95221    5.36135   13.15029
       H   -10.79669   -4.76321   16.37268
       O   -10.68253   -3.87417   16.06319
      H1    -9.80853   -3.86538   15.79045
       H   -16.58161   -2.82975   12.46249
       O   -16.89509   -1.96069   12.12955
      H1   -17.81608   -1.80557   12.42690
       H   -11.75995    3.90108    6.53819
       O   -11.14932    4.58298    6.79525
      H1   -11.21190    4.59523    7.79070
       H   -16.60192    2.60152   15.10923
       O   -15.78721    3.01534   14.71650
      H1   -15.42193    2.51785   14.02639
       H    -7.50693   -3.55264   13.13536
       O    -6.63573   -3.55023   13.71364
      H1    -6.19147   -4.37152   13.41542
       H   -15.45288    1.24577   12.28024
       O   -16.04105    0.75562   12.78258
      H1   -16.01678   -0.10362   12.28626
       H    -8.25524    1.63787   11.28643
       O    -8.79257    1.84639   12.09829
      H1    -9.67480    1.60816   11.84521
       H   -16.90031    0.84476    9.30036
       O   -16.73489    0.29832   10.04872
      H1   -16.67978   -0.63050    9.75108
       H    -7.72379    2.46358   14.15405
       O    -6.82445    2.61016   14.41807
      H1    -6.49851    3.48961   14.12237
       H    -9.00867   -4.76111   12.62718
       O    -8.72183   -4.07228   12.04432
      H1    -8.56565   -4.44901   11.19417
       H    -7.86774    4.79157   12.79661
       O    -8.79932    4.55417   12.58156
      H1    -8.82896    3.62977   12.47894
       H   -14.40264    1.14391   10.13826
       O   -13.92601    1.40894    9.34772
      H1   -13.94448    0.59746    8.77553
       H   -16.34507   -0.16890   14.26995
       O   -16.34904   -0.34247   15.22948
      H1   -16.50552   -1.27730   15.35901
       H   -14.78780    3.28748   18.79986
       O   -14.72290    2.71867   18.06782
      H1   -14.22171    1.93023   18.41101
       H    -7.99248    3.02567    9.45664
       O    -7.86518    2.07743    9.20305
      H1    -6.95424    1.87404    9.16442
       H   -10.16299   -1.12834   19.57571
       O   -10.86886   -0.42597   19.51386
      H1   -11.36156   -0.77889   18.77285
       H   -17.17620   -1.18946    7.99363
       O   -16.49091   -1.74522    8.36433
      H1   -15.66324   -1.24022    8.33990
       H   -10.78541    1.33688    6.35269
       O   -10.78963    1.39899    7.32193
      H1   -10.01591    1.96146    7.61603
       H   -13.11256   -1.21302    8.21523
       O   -13.61190   -0.49911    7.65647
      H1   -12.89858   -0.03781    7.19770
       H    -7.93967   -1.64186   17.57943
       O    -8.12581   -0.92275   16.95687
      H1    -7.24179   -0.74327   16.61585
       H   -10.50347    2.05793   19.22032
       O   -10.89238    2.77619   18.68933
      H1   -10.98307    3.54773   19.27443
       H   -13.92521   -2.06778   11.22191
       O   -14.51740   -2.13029   10.44895
      H1   -15.38002   -2.05012   10.88940
       H   -10.89802    2.96269    9.37171
       O   -11.57439    3.64464    9.47307
      H1   -12.35050    3.05274    9.23812
       H   -13.38742   -3.15308   13.28833
       O   -13.18239   -2.25776   12.98779
      H1   -12.29289   -2.32341   12.73479
       H   -12.78718   -1.44057   16.55059
       O   -12.33309   -1.91026   17.26245
      H1   -11.78532   -2.59383   16.79769
       H    -8.72564    4.61405   10.74278
       O    -8.52884    4.62710    9.77436
      H1    -7.73855    5.19901    9.80768
       H    -7.27379   -0.66203   14.34122
       O    -7.94114   -0.82489   13.69018
      H1    -8.67903   -0.28411   14.13005
       H    -7.93312    1.99867   17.92760
       O    -7.22765    2.40204   18.40283
      H1    -7.68648    3.13876   18.80421
       H   -10.50101    0.79970   15.16403
       O    -9.57288    0.62295   15.14266
      H1    -9.37145    0.24113   16.00532
       H    -9.90571   -2.61297   11.48026
       O   -10.54367   -1.94818   11.04059
      H1   -10.02044   -1.17415   11.14815
       H   -12.16096    1.41296   11.41671
       O   -11.41644    0.91179   11.78162
      H1   -11.47814    1.14615   12.69863
       H   -15.99948    6.30047   15.21795
       O   -15.54806    5.62691   15.70726
      H1   -15.95050    4.79948   15.44019
       H   -11.36680    5.62749   16.88273
       O   -11.14589    6.44623   16.39535
      H1   -11.23308    6.20503   15.43101
       H    -7.46863   -0.87713    9.48402
       O    -7.30555   -1.49536   10.16641
      H1    -6.61232   -1.08107   10.63572
       H    -6.70966    3.40633   17.27513
       O    -6.37108    4.18394   16.75610
      H1    -6.80926    4.14480   15.89228
       H   -13.93658   -4.78883   14.46561
       O   -13.77291   -4.87208   13.48178
      H1   -14.69763   -4.90578   13.08874
       H   -13.20508    6.36164    7.41342
       O   -12.74006    6.71648    8.15577
      H1   -12.91343    6.09432    8.90422
       H   -12.22091    2.43446   15.20170
       O   -12.06378    1.75320   14.56839
      H1   -12.50933    0.97209   14.91853
       H   -11.43987   -2.14842    9.29244
       O   -11.58436   -2.27984    8.35154
      H1   -10.80593   -1.83674    7.94220

