138
frame 5 | Written by MDAnalysis XYZWriter (release 2.4.3)
       H     5.86741  -10.07690    8.64667
       O     6.27789  -10.68983    9.22152
      H1     7.18995  -10.44021    9.42180
       H     7.26245  -17.88234   14.07970
       O     7.29683  -16.89125   14.16268
      H1     6.54724  -16.56648   13.63919
       H     8.38788  -11.22790   11.43438
       O     8.80330  -10.79727   10.65469
      H1     9.19186   -9.95777   10.95118
       H    -0.11472  -12.82832    6.48935
       O    -0.11662  -11.92087    6.84759
      H1     0.77781  -11.64056    6.83682
       H     0.00447  -12.77947   12.58240
       O     0.48250  -12.88706   11.75949
      H1     0.28436  -12.08888   11.21867
       H     1.52774   -7.35410   14.24193
       O     2.05648   -6.87160   14.86786
      H1     2.99378   -6.91542   14.55610
       H     5.00780  -12.64970   11.71438
       O     5.74166  -13.29404   11.92586
      H1     6.13592  -13.48938   11.09640
       H    -0.08544   -8.54980   12.43223
       O     0.55362   -7.88178   12.67592
      H1     1.33824   -8.20358   12.15233
       H     0.21866  -14.49778    4.87919
       O     0.86469  -14.48084    5.60507
      H1     1.71024  -14.11777    5.24774
       H     5.47108  -12.29895    8.92148
       O     4.93969  -13.11444    8.98612
      H1     5.65698  -13.75648    9.09387
       H    -2.13272   -9.36832   12.83215
       O    -1.42445   -9.79744   12.33303
      H1    -1.94365   -9.84279   11.45241
       H    -2.60599  -11.08411   15.48512
       O    -3.55572  -11.19475   15.33208
      H1    -3.70034  -10.82282   14.45974
       H    -3.92483  -14.96871    9.91431
       O    -3.43836  -14.19417   10.21334
      H1    -2.49835  -14.64645   10.15532
       H     2.86288  -17.19301    6.99118
       O     3.45396  -16.99379    7.76714
      H1     3.69027  -17.84972    8.09575
       H    -0.54712  -11.44350   17.19356
       O    -1.07571  -11.03245   16.51358
      H1    -1.49452  -10.22064   16.79521
       H     0.01163  -18.63315    9.07570
       O    -0.81758  -18.14318    9.34935
      H1    -0.56724  -17.22695    9.47645
       H    -3.94025  -13.67649   11.90790
       O    -4.38273  -13.62669   12.77885
      H1    -5.11183  -14.25106   12.75548
       H     4.92933   -9.15825   14.65291
       O     5.47438   -8.95175   13.88165
      H1     5.02644   -9.18204   13.08525
       H     1.13799  -10.28735    9.70247
       O     0.30155  -10.58315    9.46796
      H1     0.39757  -11.26753    8.78555
       H    -0.92150  -11.11615   13.47091
       O    -0.65893  -11.92036   13.96043
      H1    -0.87467  -11.64469   14.88930
       H    -1.13472   -9.31228    6.98293
       O    -0.30724   -8.76522    7.08108
      H1     0.03763   -8.93013    7.96950
       H     6.05382  -11.68433    6.40978
       O     5.28693  -12.22216    6.22761
      H1     4.95907  -12.49436    7.10828
       H     3.81359   -9.40189   16.66068
       O     4.36258   -9.99010   16.07290
      H1     5.06382  -10.29309   16.59681
       H     8.02317  -11.30242   13.52599
       O     8.03941  -12.07453   12.97821
      H1     7.14446  -12.35048   12.86297
       H     2.86095  -18.55935   12.35997
       O     3.46288  -18.10513   11.82358
      H1     3.30597  -18.48256   10.96655
       H    -3.12036  -14.63371   13.17872
       O    -2.30400  -15.12508   13.14286
      H1    -2.36179  -15.43593   12.23226
       H     5.42817   -7.39999    8.39715
       O     4.80960   -8.08172    8.06504
      H1     4.21731   -7.50226    7.55693
       H     3.24154   -9.45555   10.81808
       O     2.35198   -8.99182   10.75942
      H1     2.50524   -8.18863   10.23066
       H     4.82910   -5.62610   13.39927
       O     4.70335   -6.22847   14.17628
      H1     4.84080   -7.09950   13.77596
       H     0.46963  -17.45626    7.34588
       O     0.85598  -17.30814    6.51396
      H1     0.72713  -16.36772    6.32583
       H     5.33965  -10.34482   10.64862
       O     4.84355  -10.15843   11.42737
      H1     4.38080  -10.87231   11.73534
       H     0.67955  -13.92094   14.79092
       O     0.38229  -14.85975   14.84091
      H1    -0.34093  -14.91054   14.16962
       H     2.69479  -11.49086    6.04816
       O     2.60227  -11.08102    6.88915
      H1     2.91218  -10.18647    6.76119
       H     1.64099  -17.36207   16.79146
       O     1.79435  -16.39837   16.78740
      H1     1.19305  -15.96215   16.11024
       H     2.36595  -16.11423    9.05076
       O     1.60584  -15.76707    9.60202
      H1     1.90023  -15.44909   10.46774
       H     3.43615  -13.18793   15.84522
       O     3.00629  -12.52908   16.36552
      H1     3.33264  -11.65488   16.17139
       H     4.03920  -12.55392    5.09353
       O     3.09028  -12.79467    4.91876
      H1     3.02066  -13.03766    3.99077
       H     5.61324  -11.85250   17.69589
       O     5.50072  -12.76640   17.35028
      H1     4.56388  -12.80524   17.07654
       H     6.84609  -15.36987    8.39493
       O     7.23436  -14.78360    9.08200
      H1     7.54853  -15.45195    9.71489
       H     3.61707  -15.40049   16.02718
       O     4.27809  -14.84132   15.60105
      H1     4.32567  -15.05934   14.64587
       H    -3.63433  -11.85358    8.88857
       O    -3.92302  -11.64048    7.97677
      H1    -3.50593  -12.34271    7.46660
       H    -4.75012  -10.58483   11.04273
       O    -3.90832  -10.45888   10.64321
      H1    -3.99641   -9.66290   10.07328
       H     2.19944  -12.55081   11.35015
       O     3.11186  -12.27683   11.14510
      H1     3.20949  -12.40968   10.20227
       H     5.31601  -15.17591   12.45072
       O     5.01474  -15.79063   13.06907
      H1     4.37193  -16.41278   12.74150
       H     0.03807  -15.10405   10.20716
       O    -0.83816  -14.92398   10.52103
      H1    -0.63938  -14.16527   11.10608
       H     1.35480  -13.36989   17.60615
       O     0.63460  -12.94973   18.15627
      H1     1.16707  -12.79423   18.96441

