138
frame 7 | Written by MDAnalysis XYZWriter (release 2.4.3)
       H    -5.91084    5.63883   -7.47789
       O    -5.51172    4.89236   -7.03758
      H1    -6.21234    4.55405   -6.46941
       H   -11.49823    7.23925   -4.81830
       O   -10.61684    6.99734   -4.79642
      H1   -10.43070    7.05699   -3.85429
       H    -7.57280    6.97348   -7.88672
       O    -7.87659    6.72655   -7.03836
      H1    -8.72918    6.28555   -7.07210
       H   -13.16753    2.66713   -6.87932
       O   -12.85839    2.21823   -6.04189
      H1   -11.98063    1.90254   -6.39983
       H   -10.43682    4.57422   -7.05545
       O   -10.26077    5.03436   -7.86108
      H1    -9.93175    4.31160   -8.45835
       H    -6.50037    3.23364   -4.58422
       O    -6.21397    2.94790   -3.67505
      H1    -6.71341    2.08824   -3.48128
       H   -10.73134    4.07820   -4.35782
       O   -10.04512    4.40139   -4.95713
      H1   -10.23458    5.32754   -5.12569
       H   -15.70478    4.36503   -2.49459
       O   -15.02291    4.56250   -3.13031
      H1   -14.92353    5.53037   -3.04723
       H    -7.81886    9.72248   -6.26537
       O    -7.11967    9.15338   -5.83669
      H1    -7.53452    8.27373   -6.01980
       H    -9.59472   11.58343   -8.42807
       O    -9.83344   10.66242   -8.47970
      H1   -10.08697   10.42868   -7.57946
       H   -13.10960    9.10765   -0.46096
       O   -12.49898    8.51919   -0.92868
      H1   -12.18231    7.76275   -0.37416
       H   -14.90639    8.40138   -3.19316
       O   -14.68817    7.58670   -2.69925
      H1   -14.00463    7.80348   -2.06253
       H    -7.53685    2.62944   -6.33396
       O    -7.59676    3.55944   -5.97645
      H1    -8.45094    3.67255   -5.56607
       H    -4.27573    7.37736   -4.90206
       O    -4.49252    8.23645   -4.56116
      H1    -5.45368    8.38474   -4.78590
       H    -7.50720   11.62280   -4.03332
       O    -7.23469   12.55795   -4.17308
      H1    -7.04745   12.62012   -5.12346
       H    -6.63122    5.33427    1.20215
       O    -7.01694    5.02255    0.35062
      H1    -7.88942    4.67492    0.52813
       H    -4.52666    6.36147   -2.82241
       O    -4.78492    6.29213   -1.92762
      H1    -4.65038    5.35564   -1.69269
       H   -14.50435    8.60492   -9.66622
       O   -13.78802    8.89866  -10.19628
      H1   -14.04497    9.78985  -10.53545
       H   -12.78408   11.20102   -5.43653
       O   -12.80491   10.60540   -6.17073
      H1   -13.61659   10.81860   -6.69663
       H   -10.54373    9.50284   -9.46800
       O   -10.87368    8.65782   -9.93404
      H1   -11.81086    8.91090  -10.14944
       H    -7.61143    8.20395    1.34784
       O    -8.22227    8.09517    0.56372
      H1    -7.65086    7.89461   -0.17308
       H   -16.88370    4.46997   -5.80559
       O   -16.23676    3.80001   -5.64800
      H1   -15.79259    4.13235   -4.83926
       H   -14.93963    7.17932   -8.13104
       O   -15.69309    7.63928   -8.45206
      H1   -16.26715    6.94586   -8.85100
       H   -13.30896    6.80071   -6.67557
       O   -13.62946    6.23015   -7.42004
      H1   -12.93868    6.36344   -8.10146
       H   -15.14510   10.74094   -3.96874
       O   -15.22487    9.84149   -4.20861
      H1   -16.18797    9.71910   -4.41351
       H   -13.85840    3.24883   -8.83875
       O   -14.29768    3.60814   -8.02643
      H1   -13.87507    4.47478   -7.92450
       H    -9.43813    3.02711  -10.53983
       O    -9.14378    3.02056   -9.62843
      H1    -9.23535    2.11022   -9.31433
       H   -11.65763    6.99381   -9.51595
       O   -12.01485    6.09057   -9.55645
      H1   -11.43722    5.62433   -8.91097
       H   -11.87413   11.42739   -3.31286
       O   -12.35860   12.15673   -3.75777
      H1   -13.01603   12.42780   -3.14040
       H   -10.75430    1.20640   -1.17133
       O   -10.59224    1.37273   -2.09778
      H1   -11.19981    2.08194   -2.37761
       H   -11.29976    3.66746    1.08859
       O   -11.62405    3.33317    0.22523
      H1   -12.00056    2.47969    0.51726
       H    -7.09211    4.79601   -1.41686
       O    -7.46583    4.63933   -2.30012
      H1    -6.99568    3.92371   -2.75405
       H    -5.48470    7.33405   -9.69747
       O    -5.95947    7.71658   -8.93379
      H1    -5.25651    8.21493   -8.43036
       H   -11.32155    9.79372   -5.78687
       O   -10.35682    9.63836   -5.89263
      H1   -10.27205    8.72601   -5.48424
       H   -12.64831    3.04956   -4.41446
       O   -12.34024    3.28518   -3.51456
      H1   -12.96387    3.94321   -3.19320
       H    -7.37175    8.94392   -9.90444
       O    -7.51564    9.92605   -9.94286
      H1    -8.33704   10.08671   -9.41778
       H    -7.84366    7.44670   -2.22302
       O    -7.12911    8.00466   -1.85912
      H1    -6.42925    7.30271   -1.91516
       H   -10.13656    9.52939   -2.86600
       O   -11.14228    9.58243   -2.88416
      H1   -11.36646    9.35723   -1.94378
       H   -10.57108    0.53582   -7.67614
       O   -10.48895    1.34377   -7.17537
      H1   -10.15722    1.07575   -6.34845
       H   -10.74935    6.12703    1.08120
       O   -10.62199    6.69613    0.33445
      H1    -9.82723    7.13931    0.58646
       H    -8.92668    5.94029   -2.23586
       O    -9.48422    6.70861   -2.20663
      H1   -10.03726    6.60997   -1.37281
       H    -7.80586    9.52710   -2.86484
       O    -8.33501   10.00019   -3.49101
      H1    -8.13760    9.60107   -4.31929
       H   -10.58339   12.91349   -3.77599
       O    -9.82187   13.53700   -3.86252
      H1    -9.04773   13.01392   -4.24363
       H    -9.94998    3.41482   -0.41574
       O    -8.92650    3.41017   -0.42157
      H1    -8.59073    3.85216   -1.23471
       H   -13.21536    8.67087   -5.78943
       O   -13.17421    7.78303   -5.34950
      H1   -13.62382    7.83841   -4.47935
       H   -15.34691   10.17788   -7.77536
       O   -15.04240   11.04228   -7.52785
      H1   -15.05057   11.64419   -8.31931

