138
frame 9 | Written by MDAnalysis XYZWriter (release 2.4.3)
       H    17.61922   -1.96414   12.84133
       O    16.87890   -1.79911   13.44229
      H1    17.21949   -1.29521   14.16324
       H    13.24132    5.24002   15.63886
       O    13.01682    4.55939   16.23282
      H1    12.66434    3.91324   15.64430
       H    12.16042   -6.51213    9.53566
       O    11.27795   -6.40525    9.85866
      H1    11.26386   -5.91052   10.69569
       H     8.21353   -3.28183   17.55514
       O     8.78622   -3.55997   16.84189
      H1     9.58312   -2.99965   17.00143
       H    16.24038   -1.65381   18.32142
       O    16.47230   -0.76805   17.96775
      H1    15.59399   -0.36934   18.16896
       H     7.76283   -3.94240   12.88760
       O     8.12517   -4.07941   12.00345
      H1     7.48117   -4.57578   11.47955
       H    18.49591    0.13334   15.66946
       O    17.66454   -0.38594   15.62438
      H1    17.43228   -0.57079   16.56253
       H    14.46071   -7.02216   10.05888
       O    14.29896   -7.65934    9.34503
      H1    14.77492   -7.27793    8.57732
       H    11.12258   -3.39143    6.02256
       O    11.41026   -3.50056    6.98485
      H1    12.16498   -2.79847    7.07268
       H    11.03340    3.16798   14.02487
       O    11.70290    2.66076   14.53243
      H1    12.42764    2.50274   13.97579
       H    14.46695    1.98533   13.30378
       O    13.79313    2.58114   12.90429
      H1    13.45851    2.16170   12.10898
       H    16.07369   -1.19847   11.28853
       O    16.65101   -1.29235   10.56376
      H1    16.19131   -1.96969    9.99247
       H    11.84165   -7.24018   14.39725
       O    12.32695   -7.33622   13.52090
      H1    12.21596   -8.22098   13.19949
       H    12.72641   -1.87417   13.21584
       O    12.66903   -0.94079   13.25908
      H1    11.71028   -0.81671   13.07702
       H    15.92156    0.25296   14.20463
       O    15.02670    0.34900   14.52849
      H1    14.53535   -0.10303   13.82343
       H    14.95173   -7.45618   15.22598
       O    15.08880   -6.89166   14.45588
      H1    14.20865   -6.96770   14.03444
       H    13.50334   -1.54337    8.28048
       O    13.67327   -1.98586    7.43993
      H1    13.98611   -1.30492    6.79562
       H    16.27163    1.64853    9.93592
       O    15.59688    2.32336   10.09630
      H1    14.70008    1.98697    9.84918
       H    15.52914   -4.41184    8.22431
       O    16.19530   -4.09828    8.83300
      H1    16.41939   -4.86943    9.34063
       H    17.87130    0.09762   10.33489
       O    18.26248    0.98988   10.24636
      H1    19.24596    0.97427   10.44825
       H    11.24639   -7.13183   16.34141
       O    10.92717   -6.59370   15.61047
      H1    11.20214   -5.70911   15.87965
       H     9.49337   -0.08270   12.98565
       O     9.69236   -0.52891   12.15492
      H1     8.81260   -0.55119   11.67112
       H    18.74597   -4.37804   14.76339
       O    18.02900   -4.32424   14.05301
      H1    17.68892   -3.40645   14.01786
       H     8.53799   -1.63843    9.78600
       O     7.92068   -1.53759   10.52185
      H1     7.98197   -2.45161   10.90606
       H    14.90059   -5.86602   12.60261
       O    15.01260   -5.63926   11.67813
      H1    14.72263   -4.72646   11.58316
       H    10.53963   -0.94698   16.67622
       O    11.31974   -1.47272   16.46739
      H1    11.19283   -1.43568   15.46223
       H     7.64823   -4.72887   14.66719
       O     7.51640   -3.76093   14.60653
      H1     7.96412   -3.43198   15.37965
       H    16.52471    2.32427   11.73038
       O    16.94478    2.15978   12.56786
      H1    17.54155    1.40462   12.30219
       H     9.97666   -2.48603    7.72176
       O     9.42077   -1.89468    8.28481
      H1     8.51908   -2.27075    8.22459
       H    12.35751   -1.80246   10.99100
       O    12.34558   -1.33276   10.06267
      H1    11.36329   -1.32373    9.83406
       H    13.35456    1.30468   18.57322
       O    12.94109    1.49177   19.41703
      H1    13.02495    0.63410   19.77983
       H     5.90686   -1.06216   13.20427
       O     6.69875   -0.58277   13.55235
      H1     7.27515   -1.21110   13.92789
       H    11.11813    3.37479    8.66660
       O    11.06245    3.39961    9.62144
      H1    10.39328    2.72783    9.72237
       H    12.05801   -3.41462   16.86516
       O    12.60262   -4.10540   16.59666
      H1    13.16241   -4.20647   17.40354
       H    15.77042   -5.68216   15.61693
       O    16.27717   -5.05387   16.19450
      H1    17.01604   -4.89015   15.62725
       H    18.09974   -5.97023   11.82474
       O    17.53410   -5.47699   11.18534
      H1    16.63557   -5.67113   11.43144
       H     9.25620    0.50434   17.90024
       O     8.92901   -0.42579   17.72083
      H1     8.16765   -0.30457   17.19242
       H    14.96369    2.00511   15.88267
       O    15.28617    2.91711   16.12190
      H1    14.53254    3.47865   16.22760
       H    13.04781   -0.44684   17.05702
       O    13.87921    0.00090   17.13833
      H1    14.28524   -0.26581   16.26973
       H    14.32120   -3.48819   15.23899
       O    14.51496   -3.30049   14.30272
      H1    15.40559   -2.89914   14.18489
       H    12.16421   -4.10917   12.12469
       O    12.90719   -3.49647   11.93520
      H1    13.49421   -3.53925   12.62829
       H    12.43170    2.23281    9.70380
       O    13.07302    1.52242    9.71508
      H1    12.69795    0.71539   10.06851
       H     9.26193    0.69975   15.19220
       O     9.99629    0.59988   14.59267
      H1    10.56204    1.37881   14.72965
       H     8.14232    2.02368   10.02165
       O     8.92801    1.51818    9.90928
      H1     9.13746    1.14777   10.76414
       H     9.88340   -5.19992   12.12925
       O    10.82670   -5.28510   12.19701
      H1    10.95914   -6.01672   12.78185
       H     9.29793   -3.19710   14.04175
       O     9.97436   -2.48304   14.06819
      H1     9.96709   -2.09279   13.17936

