138
frame 7 | Written by MDAnalysis XYZWriter (release 2.4.3)
       H    -6.15090  -16.67104   10.08300
       O    -5.80917  -16.23383    9.31791
      H1    -5.25420  -16.98861    8.97176
       H    -1.42078  -18.34745   17.59966
       O    -0.96744  -19.18640   17.30878
      H1    -0.08185  -19.18202   17.79599
       H   -10.76795  -13.05955   13.17769
       O   -11.00359  -13.85101   12.66096
      H1   -11.95049  -13.95347   12.67156
       H   -11.26876  -10.06051   17.01102
       O   -12.04792  -10.29937   17.52186
      H1   -12.45356   -9.41092   17.68354
       H    -5.72159  -16.54798   14.40324
       O    -5.79428  -16.18126   13.53391
      H1    -4.94023  -16.33257   13.06159
       H    -5.98425  -16.27773   18.06161
       O    -5.56398  -15.91184   17.28104
      H1    -6.11305  -15.13919   17.06425
       H   -12.05590  -14.84062   19.86371
       O   -11.68450  -14.84619   18.99336
      H1   -10.93533  -14.27536   19.14771
       H    -7.89012  -13.27423   16.14888
       O    -7.00337  -13.71740   16.30673
      H1    -6.37237  -13.83663   15.55158
       H   -14.85571  -12.11835   15.83794
       O   -15.29774  -13.00524   15.93213
      H1   -14.62642  -13.66136   16.02327
       H    -8.73795  -12.50606   12.07228
       O    -8.25315  -12.42751   12.92601
      H1    -7.43935  -11.85023   12.79320
       H   -13.17932  -19.90431   19.43805
       O   -13.75968  -19.28460   18.90129
      H1   -13.27546  -19.02487   18.06351
       H    -6.56726  -19.27571   14.95117
       O    -7.37904  -18.71998   15.02553
      H1    -8.10903  -19.33622   15.08775
       H    -5.88079  -12.78917   13.68013
       O    -5.41916  -13.53211   14.20573
      H1    -5.74003  -14.38855   13.85945
       H    -3.28087  -14.11691   16.47552
       O    -3.06270  -15.08094   16.48359
      H1    -3.85739  -15.48678   16.92467
       H    -2.48299  -11.59364   18.57335
       O    -2.82237  -10.72798   18.31708
      H1    -2.11624  -10.36959   17.72935
       H   -11.74957  -10.98821   13.53486
       O   -10.78813  -11.23173   13.60610
      H1   -10.41221  -11.29408   12.69580
       H    -1.79277  -16.28589   19.01800
       O    -2.45920  -16.77989   18.57169
      H1    -2.64944  -16.14213   17.77058
       H    -1.15526  -13.80180   19.84703
       O    -1.36377  -12.84643   19.54730
      H1    -0.68298  -12.50197   18.88210
       H   -11.39484  -15.97323   16.05469
       O   -12.21131  -16.01518   16.54187
      H1   -12.07989  -15.46665   17.31208
       H    -1.58719  -11.78213   14.75963
       O    -2.00032  -10.91302   14.74861
      H1    -1.30749  -10.39618   15.19847
       H    -4.85734  -10.75354   16.60888
       O    -4.67594  -10.35244   15.75690
      H1    -3.82536  -10.68193   15.45080
       H    -4.13705  -15.68190   10.43110
       O    -3.71127  -15.71862   11.24478
      H1    -2.88380  -16.22925   11.20411
       H   -12.24152  -16.77712   12.34239
       O   -12.63982  -16.81442   13.21657
      H1   -12.04150  -16.23456   13.76766
       H    -7.92545  -15.66677   16.51598
       O    -8.50075  -16.36720   16.35130
      H1    -8.02264  -17.09695   15.88189
       H    -3.98018  -12.29301   10.53288
       O    -4.49710  -12.52189   11.33125
      H1    -4.80753  -13.42200   11.13985
       H    -8.55726  -17.84531   10.69153
       O    -9.28188  -18.28934   10.26278
      H1    -8.96955  -18.49654    9.34160
       H    -5.10054  -19.37402   16.65683
       O    -5.50163  -19.58187   17.53742
      H1    -4.77874  -19.77697   18.14826
       H    -4.02325  -18.82348   14.77692
       O    -4.80214  -19.35793   14.85633
      H1    -4.48567  -20.26282   14.64147
       H    -5.33573  -11.46129   12.34519
       O    -5.95648  -10.86181   12.86267
      H1    -5.50757  -10.75748   13.70016
       H   -16.71747  -19.07499   18.60486
       O   -16.20184  -19.77400   18.16672
      H1   -15.29093  -19.65373   18.52670
       H    -9.57200  -12.16790   15.24130
       O    -9.51532  -12.40972   16.16196
      H1   -10.32263  -12.95673   16.38513
       H   -10.08607  -14.89903   14.06094
       O   -10.32672  -15.64247   14.66785
      H1    -9.51566  -15.87650   15.22818
       H    -0.59056  -14.04696   12.83673
       O    -0.80095  -14.50488   13.67958
      H1    -1.73661  -14.73242   13.69349
       H    -6.26636   -9.44189   16.25828
       O    -7.00007   -8.88559   16.57425
      H1    -7.82467   -9.28135   16.27928
       H    -9.92666  -17.46799   19.37924
       O   -10.38379  -17.74952   18.58780
      H1   -11.10572  -17.12128   18.53137
       H    -6.74118  -17.26478   12.24024
       O    -6.97438  -17.80044   11.42871
      H1    -7.26277  -18.59642   11.83845
       H   -14.33693  -17.97699   16.24440
       O   -13.43530  -18.33204   16.28745
      H1   -12.92452  -17.44295   16.37873
       H     1.56977  -15.07078   15.43913
       O     0.85679  -15.71983   15.43244
      H1     0.17909  -15.31197   14.91405
       H     1.13577  -17.45332   18.07444
       O     1.21971  -16.45200   17.94736
      H1     0.99122  -16.18727   17.03575
       H    -6.16240  -12.09203   18.82280
       O    -6.05240  -11.73992   17.88854
      H1    -6.28894  -12.47995   17.29184
       H    -6.87664  -18.47953   18.23087
       O    -7.21429  -17.72867   18.75108
      H1    -8.05113  -17.48481   18.32298
       H    -3.19678  -16.38199   15.22870
       O    -3.20574  -17.00846   14.48060
      H1    -2.29442  -17.37895   14.50168
       H     1.82405  -19.32603   19.49540
       O     1.26948  -19.22712   18.67907
      H1     1.83264  -19.63242   17.95779
       H   -12.30574  -19.72528   14.71433
       O   -12.23423  -19.69276   13.71218
      H1   -12.08935  -18.74259   13.54669
       H     0.10472  -18.45967   14.07638
       O    -0.73302  -18.53793   14.51380
      H1    -0.48707  -18.92905   15.36578
       H    -9.09682  -11.00555   17.69576
       O    -8.71943  -10.89884   18.55428
      H1    -7.81677  -11.04672   18.22771

