138
frame 6 | Written by MDAnalysis XYZWriter (release 2.4.3)
       H     3.39926   -2.43253   12.74747
       O     3.51596   -2.99501   11.95370
      H1     2.87501   -2.64424   11.33773
       H     0.43301  -12.07569   11.97561
       O     0.92579  -12.77457   11.56374
      H1     0.91308  -12.63435   10.59471
       H     1.78812   -7.23686   13.72348
       O     2.09294   -6.73382   14.45197
      H1     3.02206   -6.55369   14.22725
       H     8.14750   -8.63400   13.74355
       O     8.71127   -7.99460   13.28241
      H1     9.00625   -8.39353   12.40630
       H     0.13519   -8.80678   12.44851
       O     0.54401   -7.98052   12.42313
      H1     0.13575   -7.41859   11.75851
       H     7.08502   -3.74323   16.63700
       O     7.05158   -3.55769   15.70635
      H1     6.90675   -4.44685   15.33885
       H    -2.26226   -9.35146   12.10893
       O    -1.41832   -9.70353   11.69063
      H1    -1.18829   -9.37189   10.81418
       H    -2.92193  -10.95463   14.27760
       O    -2.71949  -11.12292   15.22037
      H1    -1.94576  -11.70774   15.16321
       H    -0.96462   -3.93864   14.54698
       O    -1.90263   -3.67139   14.84324
      H1    -1.72981   -2.86515   15.23254
       H    -1.08064   -7.82481   17.38751
       O    -1.44039   -8.27673   18.15457
      H1    -0.68129   -8.20579   18.76659
       H     0.37183  -10.89191   17.21706
       O     0.21558  -10.52024   16.29451
      H1    -0.37668   -9.82838   16.57967
       H     6.70069  -11.63744   18.87088
       O     6.47737  -11.17653   18.03739
      H1     7.19456  -10.59155   17.80012
       H    -1.50281   -6.33608   15.60017
       O    -0.78782   -6.87562   15.84186
      H1    -0.04177   -6.79648   15.23988
       H     3.74484   -9.96010   14.58015
       O     4.27171   -9.50220   13.89661
      H1     3.96825   -9.77576   13.02745
       H    -0.84193  -10.53104   13.08581
       O    -0.30031  -11.24372   13.43409
      H1     0.01134  -10.92348   14.29096
       H     3.02569   -5.42709   10.36830
       O     2.08945   -5.64688   10.26968
      H1     1.76342   -5.00795   10.90211
       H     0.16499   -1.94448   14.83344
       O     0.24776   -0.98862   14.94300
      H1     0.58176   -0.83787   15.83457
       H     2.95553  -10.04840   16.51486
       O     3.25178  -10.93203   16.22777
      H1     3.97517  -11.19463   16.75731
       H     7.52562  -11.59568   13.63025
       O     7.87762  -12.39373   13.12914
      H1     7.15302  -13.02916   13.12434
       H     3.47864   -8.76232   19.87108
       O     2.55582   -8.88545   19.56662
      H1     2.58280   -8.70735   18.58104
       H     6.23753   -3.08097   18.38204
       O     7.09846   -3.58905   18.33965
      H1     7.91677   -3.14387   18.51981
       H     4.58660   -4.45069   11.58455
       O     4.76163   -5.35422   11.27706
      H1     5.66424   -5.49362   11.46186
       H     2.16747   -8.83448   10.63289
       O     2.00665   -8.36718    9.81252
      H1     1.72797   -7.43385   10.02695
       H     4.67007   -6.39803   12.68732
       O     4.70135   -6.82003   13.57356
      H1     4.81999   -7.78356   13.61281
       H     4.95795   -7.47302   19.14751
       O     4.65072   -6.98425   18.33687
      H1     5.53658   -6.73561   17.97614
       H     3.95057  -10.43383   11.04003
       O     3.15662  -10.31285   11.52941
      H1     3.00871  -11.29203   11.72708
       H     0.78408  -14.79459   15.41595
       O     0.20404  -15.50893   15.07618
      H1    -0.49812  -15.01755   14.54989
       H     1.08540   -4.15500   13.44056
       O     0.85108   -4.33784   14.38092
      H1     1.15181   -5.27919   14.47870
       H     8.71167   -5.62740   20.24045
       O     9.35485   -6.20251   19.70092
      H1     8.80516   -6.38532   18.92071
       H     0.99536   -6.26907   18.85110
       O     0.64249   -6.95499   19.45518
      H1     1.37933   -7.42277   19.77381
       H     2.50003  -13.87897   16.87380
       O     1.77505  -13.26665   16.60332
      H1     2.21670  -12.39847   16.42378
       H    -0.91389   -2.74362   19.39970
       O    -1.05589   -2.37950   18.51755
      H1    -0.32836   -1.80432   18.33157
       H    -0.39843   -3.98986   17.96118
       O     0.15576   -4.64352   17.47681
      H1    -0.29177   -5.30003   16.91170
       H     7.65800   -8.59203   16.83161
       O     8.06426   -9.41143   16.60985
      H1     8.99966   -9.37909   16.91951
       H     6.15754  -12.81024   17.42617
       O     6.15948  -13.74282   17.16944
      H1     5.23404  -14.02088   17.01884
       H    -0.19504   -4.17999   11.82768
       O     0.65713   -3.60439   11.75575
      H1     0.25688   -2.81967   11.37234
       H     7.26864   -9.64756   15.05214
       O     6.95827   -9.94396   14.15893
      H1     6.01756   -9.93783   14.20187
       H     3.77192   -2.58901   18.16657
       O     4.63563   -2.44377   18.52950
      H1     4.58211   -1.74027   19.19312
       H     3.20630  -15.74486   17.08302
       O     3.88630  -15.16361   16.75764
      H1     4.01806  -15.38152   15.82190
       H    -3.34900   -6.61601   17.34584
       O    -3.38104   -5.76487   16.83447
      H1    -3.09892   -5.06488   17.40498
       H     6.38400   -6.50417   14.49187
       O     7.27723   -6.29969   14.81900
      H1     7.78006   -6.76858   14.16937
       H     2.64622  -13.00346   12.00772
       O     3.62568  -13.06221   11.95544
      H1     3.86240  -13.42598   11.09448
       H     7.42562   -6.45115   16.69897
       O     7.24363   -6.42925   17.64035
      H1     7.13306   -5.51706   17.91585
       H     1.76820   -3.34036   16.78817
       O     2.41766   -2.67569   17.00392
      H1     2.65208   -2.37786   16.07850
       H     2.40776   -8.16444   15.95457
       O     2.76629   -8.19986   16.82720
      H1     3.43003   -7.53008   16.93072
       H     1.08655  -12.59551   17.92617
       O     0.75371  -11.92301   18.52145
      H1     1.48280  -11.75690   19.14602

