138
frame 6 | Written by MDAnalysis XYZWriter (release 2.4.3)
       H    14.41690  -12.84245    3.62497
       O    13.66480  -12.74369    3.06553
      H1    13.00526  -13.43856    3.30069
       H    16.97648  -15.15542    0.55106
       O    17.38741  -14.33869    0.27570
      H1    17.23559  -14.24369   -0.68724
       H    18.14842   -9.12060   -8.02794
       O    18.01194  -10.03606   -7.69115
      H1    17.60686   -9.88426   -6.83703
       H    13.31374   -5.96390    3.97071
       O    13.73434   -5.90789    4.79793
      H1    14.59716   -6.39589    4.67065
       H    13.77704   -9.83299    1.06775
       O    13.33530   -9.40858    0.34090
      H1    12.62318  -10.11650    0.08178
       H    17.03255  -10.74085   -0.23485
       O    17.39291  -10.35725    0.60481
      H1    16.75380  -10.74909    1.17025
       H    17.10922   -5.65032   -4.75231
       O    17.95444   -5.72769   -4.36026
      H1    17.88399   -5.63639   -3.42409
       H    14.68752  -12.65352    1.50073
       O    15.07321  -12.93223    0.67752
      H1    15.95969  -13.31908    0.76408
       H    13.49196   -3.24720   -2.93928
       O    13.96633   -3.34113   -2.10385
      H1    14.08442   -4.31096   -1.94061
       H    19.38311  -11.94798    3.07396
       O    18.58536  -11.45504    3.30089
      H1    18.36051  -10.91359    2.49568
       H    15.67794  -12.08149    5.29435
       O    15.94859  -12.11914    4.36934
      H1    16.85597  -11.85122    4.13765
       H    12.76995   -8.72154    6.31703
       O    13.38089   -9.56414    6.35082
      H1    14.25812   -9.19078    6.26258
       H    16.20181  -11.57548   -4.15620
       O    15.49285  -12.11908   -3.72947
      H1    15.29062  -11.45810   -3.07693
       H    14.96546  -10.70312    3.36819
       O    15.03125  -10.21273    2.56157
      H1    15.29184   -9.33673    2.90807
       H    12.62101  -11.26549    3.43807
       O    12.20202  -10.43619    3.79327
      H1    12.75441  -10.19412    4.54806
       H    19.01545   -6.22545   -1.45307
       O    18.15715   -5.88320   -1.68808
      H1    18.14434   -4.99827   -1.21454
       H    17.25614   -7.66622    3.30718
       O    16.32997   -7.89049    3.61533
      H1    16.36892   -8.20213    4.51616
       H    12.32288   -5.74136    0.37570
       O    12.91029   -4.99891    0.50929
      H1    13.72432   -5.40980    0.82032
       H    13.67644  -13.68174   -0.18435
       O    12.82069  -13.83193   -0.59086
      H1    12.45762  -14.56998   -0.11148
       H    14.23868   -4.14332    4.43364
       O    14.50575   -3.21383    4.63051
      H1    15.43548   -3.25820    4.33031
       H    14.48693   -9.77178   -1.23307
       O    15.06965   -9.84383   -2.00409
      H1    15.84743   -9.34696   -1.75019
       H    11.67315   -7.97394   -0.30583
       O    11.09096   -7.22747   -0.37027
      H1    10.64255   -7.39984   -1.26280
       H    16.98706  -14.93828   -2.64556
       O    16.96819  -14.03809   -2.43733
      H1    16.20049  -13.63726   -2.86089
       H    16.46481   -3.25239    0.45543
       O    15.66816   -2.96367    0.91503
      H1    15.03615   -2.99593    0.13295
       H    12.67454   -9.63664   -4.12545
       O    13.19574   -8.89750   -3.72555
      H1    13.96786   -9.35427   -3.28337
       H    20.12574   -3.59737    3.31868
       O    19.32101   -3.66313    2.75609
      H1    18.61327   -3.17029    3.20207
       H    15.76202   -4.29745   -5.13370
       O    15.32533   -5.14652   -5.13042
      H1    15.31819   -5.30630   -4.19058
       H    20.16578  -11.32184    5.94849
       O    19.30689  -10.95833    5.99176
      H1    19.05676  -11.01929    5.06230
       H    14.15854   -8.00780   -5.03046
       O    14.71016   -7.85340   -5.82325
      H1    14.80276   -6.88341   -5.83960
       H    12.01604   -4.89091    1.88115
       O    11.16632   -4.75409    2.46906
      H1    10.69364   -5.59489    2.24595
       H    15.99329  -15.83339    4.39476
       O    15.70493  -15.52097    3.50481
      H1    15.97880  -14.53469    3.52530
       H    15.96423   -6.48360    0.89273
       O    15.33681   -5.95062    1.31858
      H1    15.66448   -5.03757    1.23202
       H    13.16846  -14.36041   -3.64938
       O    13.37385  -13.68489   -4.27970
      H1    14.18605  -13.19090   -4.02196
       H    19.16537   -6.99414    2.56783
       O    18.69518   -6.48472    3.20303
      H1    18.74306   -5.53347    3.01250
       H    18.52011   -2.90658   -0.14234
       O    18.26639   -3.76867    0.22597
      H1    18.42871   -3.69168    1.22128
       H    18.90448   -9.43636    7.06446
       O    18.88309   -8.52092    7.47593
      H1    19.28839   -7.94968    6.82847
       H    19.44995   -8.25709   -3.56992
       O    19.37090   -7.96602   -4.56514
      H1    18.85943   -7.15742   -4.61008
       H    19.24408  -13.39135   -4.61256
       O    18.51619  -12.83206   -4.33114
      H1    17.91922  -13.28381   -3.67940
       H    13.95984   -7.06117   -2.79736
       O    14.26773   -6.18124   -2.84923
      H1    13.52203   -5.76246   -3.27615
       H    13.00938   -7.76461    2.23405
       O    12.23247   -7.65762    2.81429
      H1    12.10914   -8.62039    2.98725
       H    15.53381   -8.51533    7.37751
       O    16.13425   -8.58878    6.69007
      H1    17.00884   -8.34093    7.05047
       H    16.14687   -8.66729   -5.23147
       O    16.96227   -9.09530   -4.86467
      H1    17.68209   -8.45498   -5.02864
       H    17.48537   -7.42608   -0.64645
       O    16.73669   -7.83286   -0.25719
      H1    16.97684   -8.70021    0.06569
       H    10.45618  -12.25662    1.69883
       O    10.78495  -12.80653    0.95343
      H1    11.70258  -12.71270    0.82592
       H    10.26885  -11.41961   -1.50380
       O    10.86815  -10.63727   -1.64577
      H1    11.42279  -10.90377   -2.39676
       H    18.84856  -11.41873   -3.18149
       O    19.18443  -11.04295   -2.28300
      H1    19.41548  -11.87041   -1.82447

