138
frame 5 | Written by MDAnalysis XYZWriter (release 2.4.3)
       H   -17.38038   11.60585   -9.86283
       O   -17.01373   10.94073   -9.27734
      H1   -17.59121   10.96676   -8.47181
       H   -10.21820   10.02004  -11.74074
       O    -9.53155    9.58925  -12.27144
      H1    -9.89979    8.70889  -12.40012
       H   -11.40687    7.04751   -5.20397
       O   -10.38917    6.88595   -5.33872
      H1    -9.83587    6.91913   -4.50896
       H    -7.15537   11.17837  -12.29451
       O    -7.25064   12.18214  -12.27589
      H1    -8.13262   12.32681  -11.86001
       H    -7.10996    6.36043   -8.22348
       O    -7.90278    6.45782   -7.62976
      H1    -8.58875    6.00232   -8.13767
       H   -10.48487    4.66735   -7.87767
       O   -10.15196    5.18329   -8.63005
      H1    -9.83009    4.50133   -9.21518
       H   -12.69387   14.10172  -10.60878
       O   -13.25759   13.53707  -10.09070
      H1   -13.76600   13.02507  -10.74392
       H   -11.73925    3.85116   -5.69181
       O   -11.01330    4.29629   -6.13189
      H1   -10.91789    5.17263   -5.72200
       H   -14.50024   12.31826  -12.72364
       O   -14.85555   12.09355  -11.88425
      H1   -15.42004   12.81431  -11.66958
       H    -6.83736    9.33172   -7.54208
       O    -7.06910    8.83977   -6.74052
      H1    -7.44934    8.02686   -7.12514
       H    -8.73289   10.11595   -8.99858
       O    -9.11059    9.28135   -9.34743
      H1    -9.80155    9.05122   -8.69769
       H   -13.93605    9.02962   -9.15122
       O   -13.34986    8.87200   -9.88392
      H1   -12.68535    9.62006   -9.89368
       H   -11.88129   10.20452   -5.61251
       O   -12.36237    9.64619   -6.19685
      H1   -12.97810   10.27503   -6.62637
       H   -10.92037   11.05722   -9.57199
       O   -11.71468   10.91329  -10.07803
      H1   -12.16139   11.71576   -9.88290
       H   -10.73565    6.73995  -12.04843
       O   -10.42919    7.01103  -12.93574
      H1    -9.77668    6.32901  -13.15541
       H   -12.61842    5.16783  -10.59727
       O   -12.61692    4.31829  -11.13850
      H1   -13.32415    4.43511  -11.77283
       H   -17.48620   12.08358  -13.39739
       O   -17.80025   11.24488  -13.71410
      H1   -17.77539   10.66914  -12.93799
       H   -16.94787    6.32722  -12.78649
       O   -16.24900    6.18662  -12.13461
      H1   -15.47366    6.72274  -12.29327
       H   -14.90756    6.81871   -7.43924
       O   -15.71356    7.41094   -7.42184
      H1   -16.24723    6.90268   -8.08538
       H   -12.68114   13.41228  -14.17372
       O   -13.55365   12.95569  -14.25244
      H1   -13.69662   12.76793  -15.20587
       H   -13.03870    6.52310   -6.57417
       O   -13.30677    6.22877   -7.46203
      H1   -12.62249    6.75975   -7.93936
       H    -6.68006    8.75548  -11.90800
       O    -6.89350    9.38865  -12.62329
      H1    -7.88970    9.34478  -12.66132
       H   -10.05217   10.07557  -14.23715
       O   -10.42130    9.66048  -15.03043
      H1   -11.18373    9.15393  -14.73035
       H   -15.47868    3.82475   -5.76332
       O   -14.89442    3.70562   -6.52948
      H1   -14.35308    4.46023   -6.69477
       H   -18.48359   13.24813  -10.77542
       O   -17.52887   13.22273  -10.84651
      H1   -17.24675   13.73531  -10.10439
       H   -12.02252    7.44488  -10.16051
       O   -11.36067    6.75238  -10.43223
      H1   -11.08784    6.36338   -9.58179
       H   -18.32975    7.36308   -5.75525
       O   -17.47775    7.19865   -5.28394
      H1   -16.82304    7.25004   -5.97332
       H   -16.87070    6.27223  -10.30374
       O   -17.15804    6.12588   -9.37776
      H1   -18.08723    6.17311   -9.35251
       H   -15.13756   10.53503  -14.97504
       O   -15.67062    9.82053  -14.49539
      H1   -16.40915   10.33338  -14.14496
       H   -15.35098    4.75748  -12.38626
       O   -14.85788    3.95464  -12.68568
      H1   -15.01284    3.32470  -12.00642
       H    -9.56950   13.15163   -8.54736
       O    -9.45356   12.98017   -7.57622
      H1   -10.27932   13.34146   -7.25228
       H   -12.57930   13.96754   -7.97391
       O   -11.95156   14.12944   -7.28567
      H1   -11.56848   15.01286   -7.41793
       H   -11.52249    8.66229   -7.25209
       O   -10.90287    8.04711   -7.69824
      H1   -10.37878    7.55104   -7.00215
       H   -14.79703   11.43412   -6.39409
       O   -15.08438   12.05659   -5.66966
      H1   -14.28162   12.41141   -5.27079
       H    -6.73669    7.10911  -10.07227
       O    -6.85869    8.02756  -10.25286
      H1    -7.74411    8.37560   -9.99158
       H   -13.84581   11.43114  -16.79963
       O   -13.45126   10.63943  -16.39603
      H1   -12.62935   10.93120  -15.97406
       H   -17.08571    9.72139  -11.04187
       O   -17.85393    9.52944  -11.60553
      H1   -18.65456    9.65074  -10.99153
       H   -13.13952    7.88223  -13.79714
       O   -12.45659    7.59560  -14.44392
      H1   -11.63789    7.37862  -13.92296
       H   -11.13605   14.82252  -12.47998
       O   -11.25737   14.84554  -11.49613
      H1   -11.11203   15.80173  -11.18953
       H   -14.06250    8.82914  -11.82499
       O   -14.50964    8.45926  -12.56926
      H1   -14.90157    9.19116  -13.08804
       H    -8.09903   12.17114  -15.00579
       O    -8.99061   12.49059  -15.10285
      H1    -9.36435   12.57877  -14.24823
       H   -19.01942    7.15569  -13.43846
       O   -18.18467    7.57853  -13.61333
      H1   -18.02866    8.22762  -12.90842
       H   -10.20015   13.59192  -10.77932
       O    -9.39889   13.08018  -10.38657
      H1    -8.75367   13.75865  -10.28342
       H   -13.17335    8.21701   -5.11022
       O   -13.15891    7.27487   -4.97367
      H1   -13.01190    7.14335   -3.98831
       H   -15.03505    9.30343   -7.50830
       O   -14.78554   10.25914   -7.55258
      H1   -15.50030   10.66138   -8.02855
       H   -15.12076   14.95263   -7.86575
       O   -15.81925   14.55272   -7.43082
      H1   -15.43120   13.86365   -6.86050

