138
frame 7 | Written by MDAnalysis XYZWriter (release 2.4.3)
       H    -6.56208   10.19022  -18.22778
       O    -7.17024   10.84512  -18.69507
      H1    -7.26876   11.50930  -18.03592
       H    -7.62536   11.65614  -12.71358
       O    -7.71728   12.60386  -12.79470
      H1    -7.99632   12.98220  -11.90344
       H    -3.91815   13.89110  -11.16148
       O    -4.26448   13.02800  -10.93636
      H1    -4.27188   12.48382  -11.70987
       H    -3.62210   14.28865  -15.46080
       O    -2.93765   14.92623  -15.57025
      H1    -3.31108   15.45976  -16.28476
       H    -3.28141   16.26665  -12.83324
       O    -3.48388   17.01212  -13.40623
      H1    -3.00464   16.83424  -14.25593
       H    -9.44819    8.92807  -16.80850
       O    -8.91242    9.70000  -16.68504
      H1    -8.50200   10.01433  -17.53544
       H     0.27775   16.79953  -13.38692
       O     0.35076   15.92156  -13.04792
      H1     0.98248   15.96398  -12.32641
       H     1.05312   12.69761  -13.15916
       O     1.39219   12.52908  -12.28411
      H1     0.59562   12.18157  -11.81323
       H    -1.92407   17.45934  -17.39822
       O    -1.05256   17.42557  -16.98209
      H1    -0.80032   16.48525  -17.00983
       H    -4.29715   17.20025  -17.97729
       O    -4.14042   16.29248  -17.60221
      H1    -4.31273   15.62529  -18.32998
       H    -3.44760    7.65181  -10.75568
       O    -4.03827    6.98291  -11.07944
      H1    -4.33451    7.27676  -11.92729
       H    -6.53114   12.16900  -15.99145
       O    -5.86067   11.50309  -15.71313
      H1    -6.22357   10.59662  -15.59959
       H    -5.91107    8.04211  -17.75808
       O    -5.55651    8.94785  -17.98507
      H1    -5.37793    9.39169  -17.14642
       H    -1.78651   13.49010  -13.80109
       O    -1.56551   13.87423  -12.93833
      H1    -0.68343   14.37928  -13.04164
       H    -6.17970    7.27910  -14.27699
       O    -5.86459    6.74166  -13.55258
      H1    -5.08144    6.32296  -14.00204
       H    -2.71387    7.69344  -17.77005
       O    -2.60968    8.04583  -16.89830
      H1    -2.93203    9.00928  -16.99867
       H     1.25920    9.72057  -10.00045
       O     0.62815    9.30063  -10.63529
      H1    -0.24629    9.64531  -10.38940
       H    -1.12174   10.10485  -14.16184
       O    -0.91231   10.83483  -14.74967
      H1    -1.73885   10.96092  -15.36085
       H    -5.80844   14.24093  -10.43315
       O    -6.61292   14.74236  -10.20461
      H1    -6.26140   15.63107  -10.11590
       H    -8.64535   18.50540  -13.22568
       O    -8.22875   18.44645  -12.35800
      H1    -7.53328   17.77023  -12.52097
       H    -6.21648   10.85004   -8.97546
       O    -5.50028   11.38942   -8.43667
      H1    -5.44037   12.21994   -8.92229
       H    -7.37850    9.88014  -11.76437
       O    -7.60455    9.77949  -12.68905
      H1    -8.53506    9.41268  -12.76291
       H    -3.68293   11.02608  -13.82022
       O    -3.47993   11.97008  -13.70148
      H1    -4.33340   12.42040  -13.85574
       H    -5.16046   17.04856  -13.31115
       O    -6.12702   16.96757  -13.26386
      H1    -6.39860   17.24241  -14.13810
       H    -5.84375   16.95057  -16.93080
       O    -6.66641   17.29411  -16.56314
      H1    -7.17043   17.55017  -17.31661
       H    -1.56122   11.64073  -10.50051
       O    -1.05812   11.62049  -11.35613
      H1    -1.43282   12.23591  -11.95647
       H     0.48900   11.77213  -19.30473
       O     0.78307   12.51767  -18.75790
      H1     0.08847   12.76438  -18.19959
       H    -8.09753   15.81814  -15.64594
       O    -8.01965   14.97426  -15.11099
      H1    -7.13160   14.85933  -14.76825
       H    -1.43267    8.05757   -9.05754
       O    -1.99523    8.64148   -9.67881
      H1    -2.71245    9.04745   -9.14766
       H    -8.10658   13.38249  -17.74653
       O    -7.53725   13.23592  -17.04788
      H1    -7.85993   13.83717  -16.33050
       H    -3.50936    6.80943  -15.56265
       O    -3.81037    6.04823  -15.03437
      H1    -2.99805    5.77220  -14.51786
       H     0.12217   14.23268  -16.34278
       O    -0.59127   14.63764  -16.90738
      H1    -1.38451   14.69433  -16.33266
       H    -2.33884   18.42569  -12.64102
       O    -1.47030   18.70445  -12.24346
      H1    -1.61472   19.66139  -12.09111
       H    -6.26450   13.68815  -13.20792
       O    -5.59177   14.14751  -13.71190
      H1    -5.49707   15.08531  -13.42097
       H    -6.73669    9.22818  -14.29301
       O    -6.64455    9.00786  -15.23365
      H1    -7.58182    9.03812  -15.58350
       H     1.84466   12.51662  -15.09781
       O     0.95839   12.91313  -14.96182
      H1     0.45782   12.07884  -14.98822
       H    -7.37175    8.94392   -9.90444
       O    -7.51564    9.92605   -9.94286
      H1    -8.33704   10.08671   -9.41778
       H    -3.14715    8.79202  -13.56981
       O    -3.92069    9.13440  -14.01627
      H1    -4.38088    8.33597  -14.31814
       H    -2.42229   14.91446  -11.82709
       O    -3.21864   15.37345  -11.40433
      H1    -2.96492   15.83038  -10.59592
       H    -1.07713    7.52902  -12.78269
       O    -1.38914    8.45823  -12.96821
      H1    -1.21308    8.90297  -12.11446
       H    -9.14694   12.80329  -14.29788
       O   -10.01864   12.73387  -14.70868
      H1   -10.42908   11.83951  -14.66628
       H    -3.12889   12.55597   -9.59200
       O    -2.52693   12.05159   -9.02431
      H1    -2.32948   12.75456   -8.35854
       H    -2.66896   15.37839   -8.29340
       O    -2.89913   16.15513   -8.81017
      H1    -2.56991   16.90388   -8.30319
       H    -9.94114   13.77418  -10.54927
       O    -9.09453   13.46914  -10.10569
      H1    -8.55784   14.28998  -10.26123
       H    -3.20564   10.81700  -17.78917
       O    -3.17401   10.71161  -16.83055
      H1    -3.97902   11.09720  -16.45759
       H    -6.10426   14.93864  -19.46523
       O    -5.39986   14.31802  -19.12698
      H1    -5.66756   14.00203  -18.23651

