138
frame 6 | Written by MDAnalysis XYZWriter (release 2.4.3)
       H    -4.72986   -2.13867  -11.55000
       O    -4.01671   -2.53315  -11.02966
      H1    -3.23098   -2.05355  -11.33847
       H     3.36774   -6.16790   -6.74181
       O     3.38319   -5.32090   -7.23320
      H1     2.47840   -5.33597   -7.58585
       H    -4.80785   -2.83405   -7.59028
       O    -4.19454   -2.09775   -7.41211
      H1    -4.27626   -1.42420   -8.15726
       H     5.23953   -2.28898   -3.16075
       O     5.28825   -2.86798   -4.00389
      H1     5.37084   -3.85805   -3.82475
       H    -1.01579   -3.41009   -4.23365
       O    -1.64195   -2.67255   -4.15751
      H1    -1.30482   -2.12409   -3.46396
       H     0.39923   -7.76830   -3.16755
       O     0.85497   -6.95086   -3.40464
      H1     1.69495   -7.08225   -3.84659
       H    -4.64260   -0.62830   -6.30383
       O    -4.93342    0.19880   -5.88138
      H1    -4.14485    0.48128   -5.39602
       H    -2.00413   -5.23044   -5.82638
       O    -2.85566   -4.92330   -6.18602
      H1    -2.51425   -4.31614   -6.80478
       H    -0.88035    2.81439   -5.90274
       O    -0.03085    2.44138   -6.28466
      H1    -0.44070    1.67684   -6.73533
       H     3.20328   -4.55530  -11.77035
       O     2.60837   -4.64353  -12.56534
      H1     1.83334   -5.19765  -12.32298
       H    -4.55281   -2.96032   -3.85553
       O    -4.01778   -3.75075   -3.71116
      H1    -3.06917   -3.48328   -3.89887
       H    -0.03119   -6.00968   -6.21108
       O    -0.30264   -5.43357   -5.48341
      H1     0.01821   -5.92109   -4.70241
       H     0.07709   -4.46616  -10.81129
       O    -0.07271   -3.62076  -10.37323
      H1    -0.68126   -3.79459   -9.69803
       H    -1.14410   -6.34950  -10.67785
       O    -1.83041   -6.17945  -10.05424
      H1    -2.61527   -5.90549  -10.59320
       H     0.30440   -3.70873   -6.07903
       O     0.57917   -2.82104   -6.28319
      H1     1.10911   -2.94504   -7.16575
       H     3.23093   -9.36151   -8.37606
       O     2.96504   -8.49176   -8.64357
      H1     3.72597   -8.06967   -9.07046
       H     1.06666   -7.50468  -11.30762
       O     1.04729   -6.55126  -11.01819
      H1     1.77647   -6.41457  -10.44239
       H     1.84556   -2.58849   -0.87230
       O     2.39317   -3.23802   -1.36965
      H1     2.34037   -3.10574   -2.35495
       H     4.96264   -3.50425  -10.23366
       O     4.16322   -4.09261  -10.28406
      H1     3.43613   -3.72930   -9.72574
       H     3.43943   -3.45288   -4.36489
       O     2.46994   -3.51967   -4.11968
      H1     2.01522   -3.14834   -4.91732
       H     1.66839    2.40439   -9.57771
       O     0.93031    1.75278   -9.49137
      H1     0.65372    1.59207  -10.45791
       H     4.34860    0.13487   -9.89309
       O     4.92187    0.56162  -10.49988
      H1     4.39019    0.67662  -11.31389
       H     6.98687   -5.89187   -8.84818
       O     6.43836   -5.61310   -8.09342
      H1     5.92855   -4.80233   -8.35788
       H    -1.08067   -2.93668   -7.18218
       O    -1.73133   -3.01560   -7.90508
      H1    -2.56115   -2.62920   -7.54754
       H    -1.87059   -0.66721   -4.91714
       O    -2.12677    0.26086   -4.97463
      H1    -1.36925    0.71937   -4.59598
       H    -1.80015   -1.24282   -2.01163
       O    -0.86874   -1.13507   -2.16438
      H1    -0.70753   -0.21976   -2.35471
       H     7.13118   -2.58829   -9.10843
       O     6.71636   -2.93678   -9.92470
      H1     6.66350   -2.12697  -10.50166
       H     3.93036   -7.74444   -5.22710
       O     3.33396   -7.00462   -5.03445
      H1     2.54388   -7.35035   -5.42832
       H     2.40592   -1.80164  -11.82260
       O     2.78506   -1.99647  -12.69128
      H1     2.56368   -2.94504  -12.73265
       H     6.78303   -1.86873   -4.86712
       O     7.66799   -2.11157   -5.29556
      H1     8.40833   -1.77921   -4.72713
       H     4.19484    2.01071   -4.13428
       O     4.39932    1.12224   -4.51455
      H1     4.61592    0.62274   -3.70560
       H     0.71633   -0.96750  -10.38010
       O     1.67695   -0.88994  -10.44589
      H1     1.77219   -0.00627  -10.05175
       H     2.22764   -8.53884   -6.95871
       O     1.49589   -8.46894   -6.35446
      H1     1.49299   -9.29664   -5.81652
       H    -3.80639    0.29446  -11.68420
       O    -3.10888   -0.22770  -12.11908
      H1    -2.31280   -0.20243  -11.55717
       H     3.69104    1.33307   -6.12835
       O     3.04578    1.53219   -6.86319
      H1     2.14816    1.59717   -6.47105
       H     1.55408   -0.90110  -13.02071
       O     0.69554   -0.48099  -13.36686
      H1     0.04504   -1.18364  -13.35926
       H     4.79577   -5.95312   -4.31171
       O     5.51363   -5.46266   -3.85453
      H1     6.26836   -5.39734   -4.40933
       H    -1.21336   -0.00176   -9.40464
       O    -1.09631   -0.62679  -10.14810
      H1    -1.31396   -1.46105   -9.77623
       H    -4.72186   -7.54845   -6.65464
       O    -3.81795   -7.49382   -6.99062
      H1    -3.42765   -6.67975   -6.60809
       H     4.59379   -4.02426   -6.67366
       O     4.92499   -3.13577   -6.85330
      H1     5.33032   -2.87737   -6.00793
       H    -0.62468   -2.85126  -12.08106
       O    -0.98983   -2.52060  -12.86365
      H1    -0.68160   -3.21252  -13.50623
       H     0.51757   -7.63748   -7.78069
       O     0.15390   -6.73105   -8.01471
      H1    -0.54225   -6.85176   -8.71138
       H     5.48593   -6.72043   -9.20973
       O     5.12496   -7.35473   -9.87026
      H1     5.84278   -7.96926   -9.88121
       H     3.77853   -1.48742   -7.68293
       O     3.44047   -0.75072   -8.22157
      H1     3.38931    0.01315   -7.64512
       H    -2.34560    0.70207   -6.87073
       O    -1.98026    0.96934   -7.70524
      H1    -2.51498    1.75402   -8.03580
       H     1.88738   -1.86294   -8.85387
       O     1.74302   -2.81693   -8.62333
      H1     1.19633   -3.14850   -9.36136

