138
frame 5 | Written by MDAnalysis XYZWriter (release 2.4.3)
       H    14.60141  -13.23590    3.92303
       O    14.00378  -13.00745    3.17383
      H1    13.43697  -13.81451    3.10088
       H    16.42583  -15.11995    0.50533
       O    16.40434  -14.18131    0.20874
      H1    16.66393  -14.15928   -0.76064
       H     8.78960  -13.04580    0.06606
       O     8.04192  -13.04783   -0.55537
      H1     7.73916  -12.15951   -0.37400
       H    11.52101  -14.36134    2.26961
       O    12.02668  -14.83910    2.93773
      H1    12.18883  -15.72024    2.50089
       H    12.24008  -14.87250   -2.08655
       O    12.19579  -15.17384   -3.01578
      H1    12.88376  -15.78951   -3.10326
       H    13.63322  -17.54370   -4.92599
       O    12.84465  -17.68984   -4.33806
      H1    12.10133  -17.26865   -4.85764
       H    14.07154  -12.52832    1.24148
       O    14.14853  -12.32104    0.28379
      H1    14.97939  -12.74995    0.04030
       H     9.27263  -14.21706    6.67868
       O     9.06176  -14.61372    5.83784
      H1     8.48262  -13.97693    5.36656
       H     8.90684  -16.86320    0.17532
       O     9.41736  -16.42757    0.85136
      H1     9.05027  -16.73141    1.66525
       H    16.26841  -13.58959    5.90275
       O    16.04250  -13.71926    4.95411
      H1    16.69313  -13.06686    4.57057
       H     9.15120  -17.41683   -1.77143
       O     8.26458  -17.63676   -1.42759
      H1     7.67981  -17.32497   -2.09283
       H    18.66444  -19.08661    1.90956
       O    18.74727  -19.82065    2.51741
      H1    17.95729  -20.07386    2.97622
       H     8.63479  -12.29779    3.85865
       O     8.02995  -13.04789    4.00822
      H1     7.88120  -13.35733    3.11552
       H    12.93818  -11.56619    3.79337
       O    12.51486  -10.82742    4.30890
      H1    13.11178  -10.40648    4.91287
       H    13.81066  -17.52683   -2.49822
       O    14.09682  -17.01760   -1.73760
      H1    14.09320  -17.70655   -1.04997
       H    12.72595  -13.24029   -0.35300
       O    11.87425  -13.65384   -0.58810
      H1    11.97609  -14.55283   -0.20716
       H     5.31150  -16.47579    0.96278
       O     4.82820  -15.93790    1.60104
      H1     5.56647  -15.33166    1.73359
       H     8.25793  -15.01121    1.44059
       O     7.34720  -14.59886    1.43581
      H1     7.26011  -13.90403    0.67800
       H     9.63452  -10.17629    2.65412
       O     9.95463  -10.93125    3.09971
      H1    10.81160  -10.71923    3.47593
       H     6.43977  -16.05020   -3.12801
       O     6.29148  -16.96694   -2.91245
      H1     6.00610  -17.40907   -3.69695
       H    10.09445  -17.25773    9.01449
       O    10.00562  -17.75499    9.83158
      H1     9.35538  -17.34522   10.36448
       H     5.50327  -18.93399   -0.52475
       O     5.96277  -18.26261    0.03879
      H1     6.57889  -17.84710   -0.56718
       H     4.48610  -17.12887    4.69711
       O     3.59705  -17.44806    4.76773
      H1     3.09279  -16.62880    4.60096
       H    13.66269  -14.99556    8.73160
       O    13.75672  -15.26636    7.82334
      H1    14.60691  -14.97484    7.64444
       H    17.33415  -16.62958    4.95150
       O    16.73600  -16.29523    4.31152
      H1    16.51953  -15.42080    4.60559
       H    11.41492  -18.28417   -2.50191
       O    10.95764  -17.57372   -2.10055
      H1    11.32442  -16.76668   -2.48717
       H    12.67597  -13.53090   -3.77457
       O    13.18439  -12.80936   -4.12392
      H1    13.95071  -12.53960   -3.55503
       H    14.19205  -17.11535    7.97575
       O    14.50180  -18.05823    7.92619
      H1    14.41580  -18.45097    8.81003
       H    11.98701  -16.78180   -0.54197
       O    12.05996  -16.13515    0.14192
      H1    11.17648  -16.05953    0.59125
       H    12.88623  -19.60452    0.50119
       O    13.72183  -19.33649    0.14155
      H1    14.19137  -19.00931    0.92587
       H    12.94124  -18.63257    4.25896
       O    13.07435  -19.28657    4.99720
      H1    13.36806  -18.84695    5.81357
       H     6.43987  -15.96598    4.21813
       O     6.24306  -16.70984    4.75747
      H1     7.01122  -17.27308    4.73140
       H    17.33055  -16.92109    0.85741
       O    16.52611  -16.53913    1.26198
      H1    16.62380  -16.39340    2.23197
       H    18.18516  -17.03998    6.67329
       O    19.03910  -17.18117    6.21144
      H1    19.10773  -18.13576    6.10561
       H     9.41636  -19.08745    5.25243
       O     8.58972  -18.50583    5.35747
      H1     8.55951  -18.23387    6.28853
       H    14.46700  -17.81648    2.92186
       O    15.07958  -18.45806    2.41355
      H1    15.81958  -17.89521    2.08915
       H    11.82135  -18.13491    2.43831
       O    12.30574  -17.58269    3.09807
      H1    11.68106  -17.14255    3.58847
       H    19.48075  -17.37961   -0.19184
       O    18.77693  -17.89313    0.27667
      H1    18.45256  -18.52914   -0.40466
       H    16.74159  -16.50517    8.54999
       O    16.96482  -17.21351    7.86713
      H1    16.07856  -17.56823    7.71941
       H    10.19748  -12.14026    1.86648
       O    10.15236  -12.95479    1.31518
      H1    10.89565  -12.94955    0.64450
       H     9.25053  -17.04479    4.31229
       O     9.30851  -16.55408    3.51179
      H1     9.38941  -15.67367    3.87232
       H    16.05972  -16.23110   -3.97764
       O    16.63084  -16.24813   -3.18757
      H1    15.96814  -16.58359   -2.51717
       H     9.81894  -16.05521    7.14935
       O    10.53089  -16.38681    7.64777
      H1    11.32976  -15.97677    7.46675
       H    16.48459  -19.09262   -2.01752
       O    17.43322  -19.01809   -1.87269
      H1    17.82917  -19.75338   -2.39305
       H     6.26306  -16.37222    6.68820
       O     6.36551  -16.77336    7.57507
      H1     5.45176  -17.08285    7.61000
       H    11.27392  -12.58761    7.93759
       O    12.15929  -12.21547    7.97722
      H1    12.54671  -12.28458    7.06067

