138
frame 4 | Written by MDAnalysis XYZWriter (release 2.4.3)
       H    -4.52837  -15.77257   16.14069
       O    -4.29559  -16.32410   15.34593
      H1    -4.84142  -15.94731   14.62650
       H     0.72705  -12.02187   11.79945
       O     0.65445  -12.22260   10.87010
      H1     0.36527  -11.42537   10.34207
       H     1.02967   -7.55774   13.65896
       O     1.62839   -7.22763   14.34274
      H1     2.49662   -7.38699   13.97661
       H    -1.22702  -16.21477   14.30722
       O    -1.66210  -16.86184   14.88998
      H1    -2.55660  -16.57643   14.90485
       H    -3.45747  -13.41136   19.45250
       O    -4.12253  -12.83444   19.10947
      H1    -4.11640  -12.91436   18.14561
       H    -0.33388   -8.72332   12.31049
       O     0.22628   -8.00855   12.11002
      H1     0.92941   -8.36538   11.44292
       H    -0.69758  -17.38887   18.39847
       O    -1.32161  -17.77815   17.81773
      H1    -1.83595  -17.12232   17.38483
       H    -0.43501  -14.34546   19.67239
       O    -0.86771  -13.52156   19.42837
      H1    -0.31700  -13.16563   18.74604
       H    -2.50591   -9.50006   13.34035
       O    -1.72451   -9.89368   12.81105
      H1    -2.17504  -10.52251   12.18312
       H    -2.28727  -12.82684   15.45066
       O    -2.66929  -13.64199   15.08235
      H1    -3.20076  -13.46386   14.29080
       H    -5.51319  -13.10608   16.64244
       O    -4.98715  -12.59725   16.04932
      H1    -4.29424  -13.26821   15.79594
       H    -2.21804   -8.77609   16.78733
       O    -2.52550   -9.42907   17.45369
      H1    -1.99382   -9.24572   18.26796
       H    -0.57248  -11.85250   16.63588
       O    -1.13595  -11.32735   15.98374
      H1    -1.72073  -10.84956   16.62293
       H    -6.68328   -8.60369   18.32596
       O    -6.59973   -9.18503   19.08637
      H1    -6.91006  -10.06376   18.64944
       H    -4.12850  -14.07473   11.95466
       O    -4.43550  -13.84987   12.87021
      H1    -5.23786  -14.42019   12.94741
       H    -1.92520   -7.21444   12.35492
       O    -2.18574   -7.01191   13.20866
      H1    -1.97752   -6.10329   13.46435
       H    -1.18689   -7.63016   14.66883
       O    -1.06943   -8.29071   15.38047
      H1    -0.87355   -9.16212   15.05423
       H     5.02490  -10.07674   14.42851
       O     5.21878   -9.80948   13.50411
      H1     4.78233  -10.36960   12.89004
       H    -0.19892  -11.01036   13.79726
       O     0.68649  -11.27307   13.60356
      H1     0.99066  -11.69822   14.41226
       H    -5.34033  -12.38900   13.16263
       O    -6.07943  -11.80684   13.02963
      H1    -6.17787  -11.34509   13.87103
       H     3.88642   -9.87300   16.23468
       O     4.56396  -10.55060   16.04408
      H1     5.19547  -10.48538   16.82740
       H     2.83355   -9.10741   19.49613
       O     1.91604   -9.38550   19.30208
      H1     1.76423   -9.16027   18.36985
       H    -1.09583  -14.20252   13.99877
       O    -0.39504  -14.72277   13.56305
      H1    -0.62240  -14.74518   12.64419
       H    -6.21740  -10.64577   16.47965
       O    -6.43786   -9.87604   15.93753
      H1    -7.38385   -9.69405   16.09165
       H     2.31520   -9.84513   10.68791
       O     1.90673   -9.11246   10.24532
      H1     2.64320   -8.75498    9.69699
       H     4.81387   -6.97473   13.13171
       O     4.32569   -7.32913   13.88796
      H1     4.56079   -8.28623   13.82012
       H     4.41739  -10.81631   10.90076
       O     3.73687  -11.01511   11.48965
      H1     3.42929  -11.91410   11.32565
       H     2.05034  -13.77470   14.68831
       O     1.32194  -13.94681   15.32899
      H1     0.63383  -14.30126   14.67833
       H    -4.72323   -8.72612   14.23643
       O    -4.07004   -8.99114   13.61416
      H1    -3.65794   -8.11808   13.42434
       H     0.82771   -4.42039   13.23873
       O     0.68658   -4.75422   14.11796
      H1     1.00146   -5.66108   14.21725
       H     2.04819  -16.70533   17.62071
       O     2.06243  -15.68806   17.63107
      H1     1.73577  -15.35737   16.74240
       H    -0.51255   -7.74934   18.60522
       O    -0.65707   -8.28931   19.40463
      H1     0.21605   -8.73787   19.51670
       H     4.08287  -13.84004   15.99667
       O     3.74385  -13.25146   16.68122
      H1     3.97213  -12.39228   16.34529
       H    -0.39780   -5.86166   17.12619
       O    -0.00429   -6.75886   17.29478
      H1    -0.42544   -7.36150   16.68969
       H     6.37320  -12.94167   17.99718
       O     6.13790  -13.78730   17.68899
      H1     5.20736  -13.63473   17.57245
       H    -6.31477  -14.52103   18.26940
       O    -5.92290  -14.84707   17.45701
      H1    -6.67658  -15.26888   17.03968
       H     3.35003  -15.85298   15.70995
       O     4.19045  -15.55629   15.37818
      H1     4.03407  -15.66119   14.44229
       H    -3.83438   -8.43251   17.90345
       O    -4.30290   -7.62030   18.01670
      H1    -3.60290   -7.09055   18.41814
       H    -4.51011  -11.34628   11.42487
       O    -3.53673  -11.39116   11.17215
      H1    -3.51223  -10.72051   10.48921
       H     2.19490  -13.34052   10.80083
       O     3.09239  -13.64861   10.83899
      H1     3.52468  -13.42818   10.02136
       H    -5.15554   -6.33187   15.04561
       O    -4.28590   -6.25799   15.52587
      H1    -4.35341   -6.75128   16.33654
       H    -7.80629  -12.12437   17.79170
       O    -7.06237  -11.75646   18.24957
      H1    -6.85914  -12.32395   19.01604
       H     1.71115   -5.44960   17.19546
       O     2.09763   -4.73256   16.73332
      H1     1.65809   -4.64021   15.88067
       H     1.95995   -8.11837   15.84160
       O     2.35603   -8.61686   16.58407
      H1     2.59347   -7.96188   17.26629
       H    -0.64503  -14.93677   10.58911
       O    -1.19919  -14.31564   11.07729
      H1    -0.79877  -13.44033   10.98862
       H     1.33740  -12.97221   17.02435
       O     0.84008  -12.48720   17.65579
      H1     1.37485  -12.51306   18.48690

