138
frame 9 | Written by MDAnalysis XYZWriter (release 2.4.3)
       H     8.31067    4.31353  -13.83173
       O     7.98756    4.03549  -12.92668
      H1     7.94808    4.84290  -12.44912
       H    12.40085    9.55473  -13.54718
       O    12.65683   10.27905  -14.14831
      H1    12.85531   10.95529  -13.55279
       H    14.86367    3.19143  -18.07370
       O    15.73359    3.38011  -18.44565
      H1    15.79949    2.97710  -19.32027
       H    14.22568   -0.10380  -15.76247
       O    14.72774    0.43160  -16.46235
      H1    15.63259    0.54016  -16.14814
       H    13.05785    2.25248  -18.25811
       O    13.26169    2.49566  -17.32316
      H1    13.78038    1.71514  -16.98873
       H    11.84120    5.62907   -7.78748
       O    11.30709    5.18461   -7.09569
      H1    11.82470    5.40679   -6.28931
       H     8.39237    1.44542  -16.00487
       O     7.72699    1.68588  -16.66389
      H1     8.19179    2.19965  -17.28632
       H    14.51196    7.65354   -8.50260
       O    14.39165    8.11027   -9.35740
      H1    14.09126    9.04091   -9.20108
       H    12.90739   -1.96438   -9.16925
       O    12.05292   -1.48472   -8.92087
      H1    12.03799   -0.71688   -9.55618
       H    13.18811    0.92419   -6.85167
       O    13.53329    0.51284   -7.66142
      H1    12.96402   -0.20027   -7.72605
       H    12.96820    5.49953  -16.31323
       O    13.67589    6.04465  -16.53686
      H1    14.43051    5.59250  -16.19626
       H    12.06605    3.41742  -12.75546
       O    12.58030    3.82824  -12.02197
      H1    13.42477    4.09433  -12.39344
       H    10.27355   -0.90169  -17.61017
       O    10.97427   -0.89548  -16.91917
      H1    10.78911   -1.61902  -16.33051
       H    17.52311    0.15035  -15.29374
       O    17.20118    1.00716  -15.55232
      H1    17.79691    1.20199  -16.28552
       H    10.04562    1.49620   -7.47516
       O     9.90177    0.74873   -8.05495
      H1     9.12031    1.06192   -8.60374
       H    11.53463    6.20148  -15.13940
       O    11.02707    5.93670  -15.92674
      H1    10.60928    5.14755  -15.79083
       H    13.41184    7.43353  -12.18941
       O    12.62298    7.84502  -12.66164
      H1    11.88424    7.58184  -12.05246
       H     8.50645    4.25343  -16.55594
       O     8.37035    4.58930  -15.61007
      H1     8.13918    5.52651  -15.76360
       H    10.31907    0.24170  -15.64101
       O     9.69814    0.84781  -15.13939
      H1     9.41618    0.25462  -14.46345
       H    14.66791    7.91472  -15.72364
       O    14.91402    8.69479  -15.21220
      H1    14.15520    9.25721  -15.09613
       H    10.89219   -2.48037  -12.01808
       O    11.35092   -2.57811  -12.83332
      H1    12.31289   -2.45308  -12.62445
       H     5.23054    5.68213  -13.08344
       O     5.57873    5.23284  -13.81068
      H1     6.43319    4.84983  -13.62078
       H     8.12317    7.25327  -11.11556
       O     8.31161    6.58354  -11.79288
      H1     8.22835    6.99088  -12.68744
       H    10.60177   10.08209   -9.75861
       O    11.24232   10.18266  -10.49911
      H1    11.18761    9.25105  -10.88865
       H    10.56383    6.28089  -19.07242
       O     9.90394    5.85277  -18.54032
      H1    10.28539    6.03947  -17.67468
       H    10.96062    2.90729  -17.79072
       O    10.14109    3.07344  -18.19231
      H1    10.22380    4.01324  -18.43173
       H     8.53152    2.26259  -10.89481
       O     9.14138    2.12336  -11.59799
      H1     8.94966    2.78531  -12.26378
       H     7.03129    1.41500   -9.21246
       O     7.73899    2.06186   -9.29061
      H1     7.46060    2.81734   -8.72976
       H    15.89102    8.12999  -12.21910
       O    15.54264    7.43309  -12.80630
      H1    15.06352    7.83884  -13.58243
       H    17.09312    3.84966  -15.25455
       O    17.37621    3.44367  -14.42916
      H1    17.41921    2.53425  -14.55976
       H    12.90828    1.62652  -14.11135
       O    13.01082    1.29764  -13.19775
      H1    13.04262    2.14403  -12.66303
       H     9.72966    7.14111  -11.23417
       O    10.57049    7.46952  -10.86441
      H1    10.88764    6.86974  -10.13884
       H     8.33725    7.91447  -15.54682
       O     8.33260    7.23798  -14.86301
      H1     9.27740    6.88162  -14.91598
       H     7.71760   -0.60970  -12.13456
       O     8.29795   -0.15441  -12.75520
      H1     8.61588    0.72135  -12.30540
       H    17.04179    3.80868  -10.16439
       O    17.65030    3.05383  -10.04121
      H1    17.36132    2.76543   -9.18475
       H    12.31555    2.63475  -15.89097
       O    11.74656    2.82054  -15.13622
      H1    11.01813    2.14381  -15.09957
       H    14.78423    3.81285   -8.00366
       O    15.09139    3.68476   -7.07526
      H1    15.63739    2.90106   -7.00648
       H    14.86197    5.02904   -9.89688
       O    15.71972    5.42940   -9.94588
      H1    15.82647    5.92182  -10.75394
       H    16.43516    0.13378   -8.37893
       O    16.20082    0.99272   -8.07895
      H1    15.21494    0.94776   -8.10142
       H    18.17681    2.17110  -11.72904
       O    18.50083    1.47431  -12.29759
      H1    19.42278    1.68924  -12.59855
       H    14.05984   -1.84941  -13.54578
       O    14.17146   -1.68449  -12.61033
      H1    14.31004   -0.77944  -12.55402
       H    16.98695    5.57300  -16.26603
       O    16.17136    5.03607  -16.23235
      H1    16.29254    4.46314  -16.98738
       H    11.56742    0.94603  -11.55134
       O    11.61687    0.83709  -10.60669
      H1    10.90989    1.45680  -10.35293
       H    13.32677    3.40345  -10.44017
       O    13.66884    3.44844   -9.51528
      H1    13.40120    2.57499   -9.18663
       H    13.12876    6.82207   -9.07431
       O    12.40882    6.20621   -9.18562
      H1    12.72250    5.68246   -9.93814
       H    15.58914    5.47279  -13.05168
       O    15.11643    4.62257  -12.97125
      H1    15.73511    3.93697  -13.29272

