138
frame 10 | Written by MDAnalysis XYZWriter (release 2.4.3)
       H    14.01374  -13.30020    4.27157
       O    13.22865  -13.05821    3.79167
      H1    12.71760  -13.87582    3.73241
       H    13.20089  -14.81031   11.91222
       O    12.54410  -14.89637   11.16804
      H1    11.94813  -15.51952   11.62216
       H    13.50191  -18.54489   11.37444
       O    13.53864  -19.08747   12.20555
      H1    13.21624  -19.99738   11.98289
       H    11.46193  -14.13599    1.88237
       O    11.39767  -14.78474    2.59150
      H1    11.83374  -15.59244    2.30205
       H    14.39153  -18.73041   15.73474
       O    14.52072  -18.00839   16.31657
      H1    13.75572  -17.46447   16.30457
       H    11.80512  -14.71634   14.27044
       O    11.41328  -14.56924   15.11605
      H1    10.67768  -15.19560   15.33485
       H    15.62342  -13.59203    5.71060
       O    15.92275  -13.57829    4.75328
      H1    16.19968  -12.65120    4.60866
       H    17.53045  -16.84447   13.60896
       O    17.80024  -17.20921   12.73630
      H1    18.55318  -17.81030   12.89277
       H    11.19866  -17.78458   13.18690
       O    11.61616  -18.27913   13.93118
      H1    12.31947  -18.77992   13.49074
       H    18.93439  -18.90966    2.08259
       O    18.40226  -19.26245    2.81026
      H1    17.54135  -19.52223    2.46408
       H    14.73100  -11.86829   10.29486
       O    14.11547  -12.17570    9.61187
      H1    13.18841  -12.10324    9.97764
       H     5.53825  -20.05486   10.59279
       O     5.71090  -19.29927    9.98798
      H1     6.02272  -18.53759   10.42831
       H    19.91215  -15.53209    9.61658
       O    19.80285  -15.25507   10.54301
      H1    18.85986  -15.17253   10.66819
       H     9.28333  -18.47562   10.38434
       O     8.64647  -19.09503   10.73393
      H1     9.14102  -19.38970   11.54733
       H     8.12687  -16.02138   11.18917
       O     8.89763  -15.50333   10.84530
      H1     9.05514  -14.83038   11.56341
       H    18.81238  -15.39174    5.74887
       O    19.75624  -15.18100    5.87038
      H1    20.12754  -15.04636    4.93406
       H    11.56019  -17.16501   10.73560
       O    10.97819  -17.05812   11.46685
      H1    10.17904  -16.63754   11.05700
       H    16.77872  -18.71743   12.85523
       O    16.11142  -19.40510   12.92836
      H1    15.29625  -18.98183   12.55024
       H    14.40632  -13.56157    8.02921
       O    14.65396  -13.84851    7.10312
      H1    14.48253  -14.76997    6.97298
       H    14.62763  -15.67251   13.77287
       O    13.98489  -15.03662   13.43492
      H1    14.34578  -14.20637   13.62501
       H    15.13365  -19.08754   10.15155
       O    15.88747  -19.65316   10.21169
      H1    16.08031  -19.64500   11.14123
       H    12.33414  -15.42979    6.83980
       O    11.61579  -15.30907    7.48648
      H1    11.42186  -14.37179    7.51727
       H    11.74357  -19.68330    8.60454
       O    12.66023  -19.31832    8.61303
      H1    13.11564  -20.11057    8.86947
       H    17.15587  -16.58749    4.31826
       O    16.40144  -16.38601    3.71313
      H1    15.98630  -15.56859    4.04480
       H    17.53370  -18.77921    9.30390
       O    18.12429  -18.08950    8.93243
      H1    18.66246  -17.93810    9.69375
       H     9.71998  -18.17893   16.71039
       O    10.51164  -18.75831   16.61028
      H1    10.82147  -18.67095   15.70994
       H    13.73043  -16.25277   10.86011
       O    13.95518  -17.00952   10.32668
      H1    13.58746  -16.79098    9.42611
       H    11.20812  -12.68794    9.06644
       O    11.49903  -12.56394   10.03141
      H1    11.72892  -13.48186   10.30894
       H    19.06644  -18.02593    5.94685
       O    18.25453  -18.04869    5.38908
      H1    18.44501  -18.48109    4.50192
       H     7.12863  -19.36337    1.99217
       O     8.04555  -19.53922    1.94079
      H1     8.31414  -19.53162    2.84262
       H    16.68450  -13.54095   12.80833
       O    17.22534  -14.35284   12.53418
      H1    16.85759  -14.72820   11.75247
       H    13.52830  -18.79283    5.42699
       O    13.96996  -18.95662    6.32354
      H1    13.31252  -19.08732    7.01731
       H    17.56581  -16.59071    7.29630
       O    17.21469  -15.81257    6.90512
      H1    17.44776  -15.06937    7.50118
       H    16.97958  -15.75226   15.62437
       O    16.39510  -16.36532   15.21152
      H1    16.05902  -16.95402   15.93095
       H    15.62577  -16.37959    6.78087
       O    14.63267  -16.46843    6.73120
      H1    14.47724  -17.44893    6.46479
       H     9.44681  -19.68712    4.75335
       O     8.88625  -18.96509    4.99655
      H1     9.28999  -18.47350    5.73745
       H    13.97901  -17.98016    2.71266
       O    14.49354  -18.34362    3.46168
      H1    15.11430  -17.58751    3.63500
       H    13.80602  -16.82335    0.74657
       O    13.30984  -16.75212    1.60828
      H1    12.62382  -17.44808    1.56260
       H     6.78210  -15.02561    8.69745
       O     7.37935  -14.24450    8.81752
      H1     7.90333  -14.57207    9.54016
       H    16.05401  -14.65723    9.50955
       O    16.56992  -15.25866   10.03319
      H1    15.99700  -16.06388    9.87254
       H     7.30647  -17.83845   11.44878
       O     6.72669  -17.02407   11.57584
      H1     6.64260  -16.89202   12.55493
       H    10.72156  -18.33251    1.25567
       O    10.89326  -18.06180    2.21629
      H1    10.17696  -18.48024    2.72053
       H     8.86020  -17.14750    7.86254
       O     9.68124  -17.65671    7.67639
      H1    10.33999  -16.88641    7.68973
       H     6.06809  -19.55191    5.48690
       O     6.41859  -18.81571    6.02676
      H1     7.30977  -18.78603    5.69503
       H     6.90124  -16.32383    6.68434
       O     6.91415  -16.69774    7.58499
      H1     6.70808  -17.59293    7.33908
       H    10.14985  -13.21849    6.92387
       O    10.83188  -12.78922    7.51706
      H1    11.05607  -11.93650    7.10424

