138
frame 2 | Written by MDAnalysis XYZWriter (release 2.4.3)
       H    -6.43159   -8.04583    1.80050
       O    -7.26360   -7.55859    1.50243
      H1    -7.57735   -7.85139    0.61746
       H   -16.95272   -5.96342   -2.45806
       O   -17.79934   -6.28747   -2.08374
      H1   -18.46354   -6.04307   -2.66072
       H   -16.29478   -6.73907    1.51913
       O   -15.68441   -7.38418    1.14173
      H1   -16.03641   -7.59467    0.29909
       H   -16.39837   -9.33613    3.55111
       O   -15.86943   -9.78160    2.89922
      H1   -16.00743   -9.17876    2.18382
       H   -10.09805   -1.67748    2.00871
       O    -9.15619   -1.67468    2.22477
      H1    -9.11551   -0.90890    2.84941
       H    -8.62797   -7.67643    2.34478
       O    -9.26158   -7.57393    3.06458
      H1    -9.84774   -8.34320    2.89048
       H   -14.85889   -5.79100   -3.22134
       O   -15.60936   -5.66100   -3.81710
      H1   -15.62156   -6.43709   -4.37800
       H   -12.86895   -3.34572   -1.24861
       O   -12.07636   -2.77596   -1.49499
      H1   -11.74280   -2.49292   -0.62406
       H    -9.84530   -6.54057   -5.74178
       O    -9.27215   -5.98676   -5.15429
      H1    -9.84054   -5.66143   -4.38520
       H   -10.91841   -4.42139    2.95019
       O   -10.76125   -3.81645    3.67995
      H1   -10.11868   -3.14134    3.37728
       H   -11.24827  -13.18087    0.19175
       O   -10.48994  -12.71563   -0.15690
      H1   -10.77459  -11.81381   -0.47541
       H   -13.92100   -0.79496    3.00346
       O   -14.21753   -1.44395    2.36936
      H1   -14.38637   -2.28517    2.79193
       H   -16.18909   -1.38973   -0.00147
       O   -16.42632   -0.90328    0.81959
      H1   -15.73952   -1.21309    1.46723
       H   -11.90580   -2.27471    4.43453
       O   -12.14571   -1.39826    4.46747
      H1   -13.00747   -1.57493    4.80877
       H    -8.96709   -2.27108    6.30427
       O    -9.64587   -1.60017    6.48040
      H1   -10.20469   -1.70389    5.68702
       H    -8.42218   -6.18510   -0.99852
       O    -8.63802   -5.36144   -0.51768
      H1    -7.90776   -5.14728    0.10865
       H   -14.91123   -4.38295    3.16957
       O   -15.26040   -3.91639    2.39167
      H1   -14.78481   -4.07789    1.56840
       H   -10.93308  -10.34120    4.12743
       O   -10.96748   -9.91885    3.28528
      H1   -10.56622  -10.60468    2.76385
       H   -14.24425   -5.64173    4.68966
       O   -14.82465   -4.93422    4.89082
      H1   -14.29216   -4.29007    5.42952
       H    -7.72809   -9.88791    5.14520
       O    -8.17826   -9.15439    5.49138
      H1    -8.24671   -8.45991    4.88223
       H   -13.03333   -9.54572   -5.17542
       O   -13.02966   -8.88729   -4.48638
      H1   -13.91207   -8.53249   -4.68310
       H   -11.66671   -7.97322   -3.38045
       O   -10.79264   -7.93007   -2.93532
      H1   -10.10422   -8.11892   -3.58333
       H   -12.04538   -4.61735   -4.56324
       O   -12.01961   -4.62329   -3.59127
      H1   -11.62986   -3.82053   -3.31469
       H    -8.66405   -8.97876   -1.10235
       O    -8.01418   -8.25682   -0.92571
      H1    -7.16117   -8.48156   -1.23182
       H   -10.65153   -5.23695    5.01573
       O   -10.43608   -6.12381    5.34538
      H1   -10.04111   -6.54503    4.59351
       H   -14.25719  -10.30715    2.99940
       O   -13.51576  -10.90585    2.78563
      H1   -12.66105  -10.49998    2.95143
       H   -12.36267   -7.40878    8.22790
       O   -13.09885   -7.09941    7.66187
      H1   -12.85786   -7.22063    6.79433
       H   -11.94701   -3.26591    1.25372
       O   -11.67961   -2.33785    1.23724
      H1   -12.43082   -1.82962    1.61742
       H   -12.05427   -6.06820    1.28958
       O   -11.50284   -5.29165    1.38453
      H1   -10.79120   -5.37748    0.76555
       H   -17.17638   -3.37777    4.61087
       O   -17.60383   -3.09884    3.77674
      H1   -16.97931   -3.37587    3.06323
       H    -9.20571  -10.60571   -2.26955
       O    -9.96688  -10.29552   -1.77385
      H1   -10.31487   -9.48100   -2.22283
       H    -8.12826   -1.81935   -0.78627
       O    -8.00144   -1.05231   -0.23834
      H1    -7.99030   -1.44499    0.65968
       H    -6.19938   -4.33697    3.15195
       O    -5.79763   -3.97499    3.96812
      H1    -5.19243   -3.36835    3.49894
       H   -11.87326   -6.68302    4.62763
       O   -12.82884   -6.85976    4.47606
      H1   -12.87419   -7.34991    3.61767
       H   -16.36743   -2.67859   -2.07351
       O   -16.27596   -2.82146   -1.11277
      H1   -17.10410   -3.10145   -0.69832
       H   -12.76980   -6.39706   -1.30402
       O   -13.39848   -6.02430   -1.88575
      H1   -12.90996   -5.30092   -2.37790
       H   -17.83659   -5.50824    2.55981
       O   -17.31751   -6.23982    2.90678
      H1   -17.26254   -6.02866    3.91233
       H   -12.74465    0.58653   -2.01434
       O   -13.17534   -0.25249   -2.15993
      H1   -12.58155   -0.90809   -1.83329
       H    -9.86565   -3.18002   -1.77940
       O    -9.03027   -3.24967   -2.19195
      H1    -8.72853   -4.04592   -1.73614
       H    -8.97579   -7.87606    8.27303
       O    -9.83894   -7.51143    8.00506
      H1    -9.77284   -7.05637    7.12383
       H   -16.46932   -5.66556    5.62424
       O   -17.41635   -5.92331    5.49188
      H1   -17.39504   -6.68269    6.09338
       H   -12.70303   -5.03058    7.08510
       O   -12.53836   -4.24603    6.57905
      H1   -12.07966   -3.59978    7.14876
       H   -12.74293   -9.56888   -1.28688
       O   -12.76414   -9.88416   -0.39307
      H1   -13.25738  -10.73454   -0.51317
       H   -13.92892   -7.54457    1.21296
       O   -12.98520   -7.70265    1.20425
      H1   -12.95291   -8.56087    0.74858
       H   -13.87769   -4.89633   -0.63612
       O   -13.96821   -3.97254   -0.26723
      H1   -14.77616   -3.52806   -0.56401
       H    -6.75712   -5.97454    1.36610
       O    -6.55257   -5.02095    1.47981
      H1    -5.74316   -4.84111    1.03433

