138
frame 4 | Written by MDAnalysis XYZWriter (release 2.4.3)
       H     8.70132  -12.65193    9.79467
       O     9.04460  -13.35266    9.21759
      H1     8.46368  -14.03236    9.52378
       H     6.20401  -17.19101   13.56045
       O     6.45884  -16.31626   13.14321
      H1     5.63934  -16.06217   12.70284
       H    -5.17148  -17.02120   10.16022
       O    -5.18608  -16.48930    9.38533
      H1    -4.63615  -16.98578    8.80351
       H    -5.74245  -18.18281   12.40092
       O    -4.82139  -18.25890   12.00661
      H1    -4.31779  -18.52884   12.78435
       H     6.51124  -19.63762   14.04482
       O     5.88019  -18.95075   13.73199
      H1     5.19068  -18.92155   14.42251
       H     0.72705  -12.02187   11.79945
       O     0.65445  -12.22260   10.87010
      H1     0.36527  -11.42537   10.34207
       H     2.62079  -20.14344   13.16122
       O     2.24535  -19.26637   13.20655
      H1     2.75916  -18.75217   13.89292
       H     6.35540  -12.16993   11.51072
       O     6.33690  -13.01934   11.97634
      H1     6.68261  -13.70785   11.39163
       H     3.82075  -19.80798    7.71655
       O     3.74940  -19.08813    8.33133
      H1     3.85478  -18.23128    7.95806
       H    -1.22702  -16.21477   14.30722
       O    -1.66210  -16.86184   14.88998
      H1    -2.55660  -16.57643   14.90485
       H    -0.16497  -13.64651    4.72881
       O     0.34760  -13.72475    5.53680
      H1     1.26720  -13.64395    5.14563
       H     5.11532  -11.79012    8.69319
       O     4.23588  -12.18834    8.58390
      H1     4.51704  -12.88586    7.99455
       H     7.80942  -17.88225   10.65539
       O     8.37324  -17.19685   11.05032
      H1     8.01607  -16.99760   11.89065
       H    -3.91572  -16.07824    6.03437
       O    -3.21559  -15.59983    6.59718
      H1    -2.56048  -15.51185    5.92674
       H    -4.06776  -15.34217    9.90655
       O    -3.77070  -14.46549   10.24042
      H1    -2.78937  -14.42228   10.19842
       H     3.14521  -16.15449    7.19235
       O     3.48261  -16.26128    8.05090
      H1     2.69023  -16.01942    8.59620
       H    -0.17199  -18.83644    7.29856
       O     0.05645  -17.87081    7.45895
      H1    -0.36059  -17.48174    8.22517
       H     3.83438  -19.64953   15.90010
       O     3.97905  -18.75028   15.65988
      H1     4.56076  -18.42981   16.39286
       H     7.20208  -15.11786   14.93615
       O     7.76741  -14.98708   15.74121
      H1     7.40543  -14.30482   16.31994
       H    -3.02100  -17.40998    3.99093
       O    -2.29234  -17.52311    4.64857
      H1    -1.65731  -18.12552    4.23465
       H    -3.58433  -18.85970    7.04645
       O    -3.44629  -18.11653    7.68908
      H1    -3.11680  -17.38077    7.10864
       H    10.90481  -17.46071    8.57819
       O    10.81069  -17.81411    9.45322
      H1    10.12243  -17.36237    9.99384
       H     4.31872  -17.30150    4.22573
       O     3.53971  -17.88587    4.35753
      H1     2.78638  -17.28308    4.54954
       H     2.73003  -18.72994   11.65274
       O     2.94305  -18.14332   10.88613
      H1     2.74350  -18.57167   10.08850
       H    -1.09583  -14.20252   13.99877
       O    -0.39504  -14.72277   13.56305
      H1    -0.62240  -14.74518   12.64419
       H    -3.18865  -18.74728   10.93958
       O    -2.62361  -19.24072   10.28738
      H1    -2.62008  -18.82097    9.44435
       H     0.89470  -17.04608    6.26866
       O     1.41524  -16.52132    5.64000
      H1     0.93442  -15.68848    5.68444
       H     4.41739  -10.81631   10.90076
       O     3.73687  -11.01511   11.48965
      H1     3.42929  -11.91410   11.32565
       H     2.05034  -13.77470   14.68831
       O     1.32194  -13.94681   15.32899
      H1     0.63383  -14.30126   14.67833
       H     7.00891  -15.09369    5.02607
       O     7.27707  -15.48135    5.88582
      H1     7.38075  -16.42759    5.72299
       H     2.04819  -16.70533   17.62071
       O     2.06243  -15.68806   17.63107
      H1     1.73577  -15.35737   16.74240
       H     1.29066  -15.42417   10.66671
       O     0.96515  -16.13984   10.06917
      H1     1.33823  -16.91309   10.53634
       H     8.26331  -18.35458    6.58512
       O     7.61890  -18.30554    5.85286
      H1     6.96795  -19.06140    5.93493
       H     3.82174  -13.13994    5.21720
       O     3.01086  -13.63838    5.11797
      H1     3.05870  -14.26184    4.41440
       H     0.73768  -17.97114    4.69271
       O     0.42972  -18.66775    4.13659
      H1     0.40269  -18.13107    3.30454
       H     6.44871  -15.00704    9.44122
       O     7.09792  -14.97509   10.11466
      H1     7.50334  -15.87180   10.25280
       H     3.35003  -15.85298   15.70995
       O     4.19045  -15.55629   15.37818
      H1     4.03407  -15.66119   14.44229
       H    -2.23993  -18.30329   13.89785
       O    -2.52336  -19.19263   13.58033
      H1    -1.68823  -19.65817   13.29629
       H     3.34544  -18.32124   18.23392
       O     2.45510  -18.46550   17.91731
      H1     2.55048  -18.68827   16.96545
       H    -3.27608  -18.86672    5.20238
       O    -3.60266  -19.79536    5.48759
      H1    -2.79580  -20.32309    5.55183
       H     0.90942  -19.57183   14.38981
       O     0.43767  -19.49697   15.20704
      H1    -0.04465  -18.69931   15.19814
       H     2.19490  -13.34052   10.80083
       O     3.09239  -13.64861   10.83899
      H1     3.52468  -13.42818   10.02136
       H     5.69275  -19.02428   11.75902
       O     6.07597  -19.15044   10.89063
      H1     5.27008  -19.13437   10.32298
       H     3.68022  -15.07911   11.64734
       O     3.76476  -15.75712   12.39659
      H1     3.57518  -16.55845   11.88729
       H    -0.64503  -14.93677   10.58911
       O    -1.19919  -14.31564   11.07729
      H1    -0.79877  -13.44033   10.98862
       H     6.19559  -14.89833    7.24208
       O     5.56983  -14.57217    7.91710
      H1     4.88472  -15.21192    7.68235

