138
frame 6 | Written by MDAnalysis XYZWriter (release 2.4.3)
       H    -2.09908   14.11191    3.39525
       O    -2.17675   15.05120    3.41232
      H1    -2.54961   15.27216    2.56072
       H    -5.31001   18.50120    5.09120
       O    -6.10624   18.20141    4.62993
      H1    -5.82619   17.87323    3.75913
       H    -9.55281   16.40567    7.49384
       O    -9.60028   17.39475    7.54050
      H1    -9.41739   17.52269    6.61965
       H    -5.65303   15.57623   14.02643
       O    -6.32544   15.87689   14.59022
      H1    -7.07319   15.56081   14.05458
       H   -11.07578   16.21044   12.06795
       O   -10.78198   15.44376   11.51448
      H1   -11.52243   14.80068   11.67708
       H    -6.54337   13.56920    7.96043
       O    -6.34443   14.08681    8.76209
      H1    -7.08476   14.67446    8.96556
       H    -2.10592   19.47236    2.95262
       O    -1.22664   19.09615    2.93733
      H1    -0.73496   19.75135    3.43791
       H    -9.32103   17.40240    4.30377
       O    -8.81293   17.90344    4.91855
      H1    -7.94093   17.81275    4.60993
       H    -2.55355   16.43609    8.86990
       O    -1.76356   16.77204    8.32368
      H1    -1.30316   16.01386    7.92134
       H    -9.28436   13.96191   12.99651
       O    -8.30530   13.85741   13.10390
      H1    -7.98281   13.17883   12.45331
       H     3.16816   18.79888    7.02753
       O     2.53141   18.11651    7.15188
      H1     1.80603   18.65615    7.61848
       H   -12.12848   19.28416    7.22707
       O   -12.05551   20.09384    6.64622
      H1   -12.52289   20.01029    5.80672
       H     0.67187   18.88279    4.58156
       O     0.86966   17.99538    4.93160
      H1     1.35358   18.18752    5.76836
       H   -10.30266   15.30712    3.85581
       O   -10.79234   16.11920    4.06101
      H1   -11.69643   15.80723    4.23764
       H    -5.87437   11.72133   12.93866
       O    -6.66036   11.60946   12.36600
      H1    -6.30808   11.68483   11.44131
       H    -1.26638   11.91239    9.31482
       O    -0.80253   12.68029    9.58927
      H1    -0.93473   13.17802    8.76795
       H    -9.86475   16.00908   15.10116
       O   -10.06824   15.16372   15.59098
      H1   -10.14134   15.40086   16.52440
       H    -8.79239   17.50388   16.50091
       O    -9.52413   18.07138   16.16698
      H1    -9.10715   18.64776   15.45848
       H    -6.93767   18.82603    7.57634
       O    -6.73761   17.91903    7.97315
      H1    -7.72021   17.61078    8.08101
       H    -3.66750   20.19973   14.75876
       O    -3.84317   19.37778   15.23594
      H1    -3.75464   18.71197   14.51849
       H   -11.16995   15.53977    9.29487
       O   -11.71416   16.00503    8.64995
      H1   -11.02059   16.63404    8.22183
       H    -1.47308   18.10239   11.21561
       O    -0.82649   17.64512   10.70906
      H1    -1.21230   17.38222    9.85909
       H    -1.52256   14.12715    6.82174
       O    -0.76225   14.22792    7.42921
      H1    -0.02357   14.07588    6.82494
       H     0.49602   16.04613   11.53779
       O     1.25947   15.53255   11.82376
      H1     0.99579   14.61503   11.81293
       H    -3.53104   15.52495   12.28136
       O    -3.68958   15.97043   13.11117
      H1    -3.06507   16.70815   13.05113
       H    -2.19582   19.37334   12.87607
       O    -2.74137   18.82000   12.27710
      H1    -3.49987   19.34085   12.18012
       H   -12.66415   18.70077    9.65129
       O   -11.82075   19.15912    9.45058
      H1   -11.08537   18.66894    9.90228
       H    -4.72933   15.29505    9.42473
       O    -4.05958   15.63733   10.07640
      H1    -4.35013   16.58366   10.08943
       H    -0.07109   18.59072    9.11518
       O     0.30184   19.15851    8.43102
      H1    -0.29366   18.92010    7.65596
       H    -9.63118   18.76338   12.18616
       O    -9.65816   18.89345   13.19052
      H1   -10.53303   19.26393   13.52337
       H    -6.93778   17.23134    1.40969
       O    -6.00476   17.26248    1.78812
      H1    -5.51541   17.83338    1.18918
       H    -2.40471   18.19943   16.17351
       O    -2.27633   17.24597   16.28286
      H1    -2.03131   17.16042   17.23456
       H    -8.92677   17.19925   10.55839
       O    -9.47558   18.01809   10.44521
      H1    -9.06108   18.55833    9.77949
       H    -5.83331   17.28258   16.57723
       O    -6.42217   17.99408   16.94871
      H1    -5.80010   18.65997   17.40536
       H    -0.75843   18.34844    5.90617
       O    -1.45247   18.78568    6.33085
      H1    -1.87129   18.12608    6.93417
       H    -6.21494   12.52255    9.47591
       O    -6.08778   11.55658    9.66484
      H1    -6.89217   11.09728    9.45102
       H    -4.15475   19.12292    9.37518
       O    -4.75312   18.47959    9.81319
      H1    -5.49939   18.29569    9.17273
       H    -7.90988   15.32542   11.44197
       O    -8.14428   15.41800   10.51401
      H1    -9.07429   15.23937   10.57633
       H    -9.60209   12.08638    8.08592
       O    -9.45167   12.14316    7.11590
      H1    -9.90979   11.30983    6.91253
       H    -5.42118   16.60459    6.05610
       O    -5.33885   15.99344    6.78866
      H1    -5.81667   16.49095    7.47043
       H     0.22367   19.17328   13.97885
       O    -0.65709   19.52630   14.10075
      H1    -0.98557   19.27489   14.95753
       H    -2.62726   14.01084   16.00598
       O    -3.40094   14.19141   15.37013
      H1    -3.07074   14.90507   14.81439
       H    -9.74829   11.94989   10.35096
       O   -10.04794   12.76317    9.87469
      H1   -10.90406   12.37912    9.68387
       H    -6.12508   11.35470    7.12187
       O    -6.52476   12.19245    6.84101
      H1    -7.46447   12.05564    6.97416
       H    -3.93575   15.10903    6.21775
       O    -3.11374   14.67096    5.95457
      H1    -2.95536   15.04770    5.07396
       H    -3.65726   12.95681    5.48578
       O    -3.82907   11.99720    5.43991
      H1    -4.74649   11.98271    5.69689

