138
frame 8 | Written by MDAnalysis XYZWriter (release 2.4.3)
       H    -7.76121    1.57997   11.28663
       O    -7.00808    1.09820   11.56825
      H1    -6.55517    1.71369   12.13991
       H    -8.43741    7.59424    6.93277
       O    -7.62802    7.20826    6.75331
      H1    -7.80722    6.26761    6.53142
       H    -7.14066   -5.24716    5.48914
       O    -7.74132   -4.85116    4.81639
      H1    -7.30427   -3.99966    4.60897
       H    -9.05114   -1.72913    2.27672
       O    -8.07782   -1.55401    2.17668
      H1    -7.82813   -0.70297    2.67045
       H    -7.34325    0.42627    6.33066
       O    -6.72437    1.09715    6.08850
      H1    -5.80895    0.67678    6.05941
       H    -9.79043    6.14480    4.35709
       O    -9.29827    5.99298    3.50233
      H1    -8.40718    5.69512    3.76075
       H    -9.96110    3.75219    6.59096
       O    -9.28661    3.13308    6.76290
      H1    -8.71639    3.62287    7.34880
       H    -1.25367    5.20203    9.82109
       O    -1.51879    4.47364    9.32739
      H1    -2.43653    4.25592    9.44949
       H    -9.12067   -5.46305    7.81792
       O    -8.92019   -4.52048    7.63239
      H1    -8.76922   -4.53199    6.67152
       H   -10.61383    0.14337    3.10397
       O   -10.33922    0.71014    2.32617
      H1   -10.15238    0.03137    1.66714
       H    -2.83780    1.57736    4.46061
       O    -3.79473    1.54878    4.26630
      H1    -3.88733    1.51504    3.30115
       H   -11.88168   -0.95872    4.15626
       O   -10.89550   -0.98264    4.31063
      H1   -10.79954   -0.31204    5.03864
       H    -8.79355    3.25582   10.04038
       O    -9.15389    2.52211   10.60297
      H1    -9.98445    2.93753   10.93648
       H    -0.79308   -4.34388    7.81793
       O    -1.34865   -3.67692    7.39460
      H1    -0.88573   -2.93485    6.95022
       H    -7.53426   -3.75325    8.99703
       O    -6.85220   -3.15400    9.33285
      H1    -5.98278   -3.62594    9.17541
       H   -10.21363   -3.17084    7.27884
       O   -10.76497   -2.49803    6.91470
      H1   -10.19593   -2.08160    6.27774
       H    -3.85964    1.72668    0.88998
       O    -4.16219    1.16098    1.50726
      H1    -4.91175    0.77898    1.04796
       H    -7.14606   -1.52550    5.33231
       O    -6.80591   -2.04356    4.60763
      H1    -7.43007   -1.93795    3.89306
       H    -7.80301    3.64571    5.83755
       O    -7.47564    4.39283    5.35931
      H1    -6.49208    4.20038    5.19218
       H    -7.98467    5.78209    9.03242
       O    -8.14399    4.93277    8.59181
      H1    -7.22140    4.82438    8.21889
       H    -1.89264    3.73271    4.12876
       O    -2.24771    4.38048    3.58798
      H1    -3.11852    4.49054    4.03058
       H    -9.95808    1.53531    6.71999
       O   -10.22439    0.65875    6.38552
      H1   -11.11533    0.38541    6.73826
       H   -11.80721   -1.05445    7.27630
       O   -12.55632   -0.49860    7.35867
      H1   -12.96014   -0.57911    6.45312
       H    -4.99788   -0.60834   -1.02310
       O    -5.21739   -0.81824   -0.12681
      H1    -6.08709   -1.33857   -0.18778
       H    -2.47470   -1.12594    8.95945
       O    -1.59335   -1.47963    9.13288
      H1    -1.36031   -2.20246    8.48581
       H    -5.02577    4.95032    8.60537
       O    -5.39072    5.62784    8.00235
      H1    -4.91716    5.47989    7.19020
       H     0.64946   -1.38588    6.90089
       O    -0.18444   -1.39169    6.38735
      H1    -0.29969   -0.45294    6.14409
       H    -4.65447    0.54495    9.20320
       O    -3.82297    0.06191    9.33200
      H1    -3.88853   -0.32272   10.21406
       H    -7.30205    1.22485    4.26196
       O    -7.54629    0.84734    3.42809
      H1    -8.45890    0.98820    3.27423
       H    -4.05111   -0.06459    7.42337
       O    -4.34294   -0.24325    6.53005
      H1    -3.81141    0.26352    5.91263
       H    -4.13119   -4.05217    8.02049
       O    -4.31756   -4.22202    8.94362
      H1    -4.62860   -5.12669    8.79885
       H    -7.29968   -3.00489   -0.75497
       O    -7.38669   -2.11513   -0.34380
      H1    -7.51902   -2.17867    0.57777
       H    -3.50543   -2.15315    4.71227
       O    -4.22100   -2.56182    4.29271
      H1    -5.03696   -2.03318    4.39584
       H    -0.72425    2.91741    7.80232
       O    -0.06916    2.49132    7.18762
      H1     0.34061    3.19091    6.72792
       H    -8.54691   -0.74632    8.13038
       O    -7.74983   -1.13347    7.70917
      H1    -7.39783   -1.81749    8.26928
       H    -1.25081    0.07791   10.10076
       O    -1.00115    0.84750   10.63142
      H1    -0.14843    0.97870   10.26651
       H   -10.15886    4.15106    3.16062
       O   -10.77251    3.51530    2.74537
      H1   -10.41881    2.64492    2.82792
       H    -4.89271   -4.08128    5.79655
       O    -4.96860   -4.78747    6.40007
      H1    -5.08925   -5.61365    5.92442
       H    -1.02211    0.27438    1.23348
       O    -1.34252    1.17741    1.08234
      H1    -2.28295    0.93015    1.22671
       H   -10.51592   -0.09570    9.75857
       O    -9.57597    0.06062    9.52642
      H1    -9.43817    1.01583    9.83203
       H    -0.94765    1.67578    6.00946
       O    -1.18689    1.11158    5.24551
      H1    -0.54702    1.31398    4.58143
       H    -4.95004    4.64524    3.67346
       O    -4.78878    4.13453    4.51030
      H1    -4.65048    3.20131    4.25223
       H    -3.53311   -1.95647    2.38717
       O    -3.17064   -1.88870    1.53119
      H1    -3.86245   -1.42724    1.08842
       H    -6.39727    1.38546    7.83514
       O    -6.21242    1.49879    8.79566
      H1    -6.98188    1.05779    9.26294
       H    -4.85331    7.03891    2.69633
       O    -5.36687    6.24874    2.59292
      H1    -5.95638    6.50090    3.31603
       H    -4.20760    3.67501   10.62636
       O    -4.58607    3.66523    9.75559
      H1    -5.28731    2.98740    9.78937

