138
frame 7 | Written by MDAnalysis XYZWriter (release 2.4.3)
       H    18.13394   -9.29849   -9.12990
       O    18.05926  -10.09339   -8.58151
      H1    17.88653   -9.80389   -7.69997
       H    17.28889  -10.73668  -16.21686
       O    18.25703  -10.62470  -16.07398
      H1    18.26987   -9.79609  -15.52371
       H    13.15792   -5.94081  -19.30863
       O    13.58670   -6.41483  -18.56170
      H1    14.40357   -6.00328  -18.41016
       H    10.82924   -9.41084  -11.52848
       O    10.88495   -8.47792  -11.33913
      H1    11.14398   -8.14492  -12.21054
       H    11.86225   -7.86393  -10.11044
       O    12.52101   -7.59132   -9.47898
      H1    13.31823   -8.16771   -9.57655
       H    15.85767  -13.50759  -15.72154
       O    15.37430  -14.11811  -15.15390
      H1    16.06699  -14.76768  -14.96235
       H    16.89439   -5.49193  -11.62089
       O    16.47306   -6.01115  -12.27721
      H1    16.34378   -6.91256  -11.93639
       H    15.45974   -5.43210  -13.81887
       O    14.74581   -5.51662  -14.53773
      H1    13.86556   -5.79085  -14.07926
       H    12.27693   -5.09331  -17.20153
       O    11.80774   -4.41374  -16.70551
      H1    12.51624   -4.05638  -16.12416
       H    17.53811   -0.76410  -14.35988
       O    16.78486   -0.16372  -14.56805
      H1    17.14652    0.34356  -15.30135
       H    18.70930  -12.22497  -15.72311
       O    18.97404  -13.08759  -15.38146
      H1    19.34245  -13.54812  -16.12592
       H    18.89936   -2.25712   -8.15163
       O    19.58780   -1.68349   -8.47556
      H1    19.89858   -2.35503   -9.14915
       H    14.39500   -3.35595  -15.45494
       O    13.99869   -3.07375  -16.26435
      H1    14.67337   -3.49932  -16.86126
       H    17.07940  -17.34082  -13.84761
       O    16.93112  -16.41140  -14.04320
      H1    17.26200  -15.80769  -13.38667
       H    13.90875  -13.07133  -11.29496
       O    14.64047  -13.51253  -10.82684
      H1    14.80387  -14.24089  -11.40842
       H    12.80508   -9.53129  -17.39284
       O    13.42592   -9.24508  -18.16458
      H1    13.19917   -8.32575  -18.19856
       H    17.88095   -1.76561  -12.28388
       O    18.01482   -2.40042  -13.03419
      H1    18.99361   -2.54334  -13.08012
       H    14.16684   -2.38136  -10.94310
       O    13.88065   -2.62215  -10.04112
      H1    13.86980   -3.52877   -9.97109
       H    13.83472  -12.19653  -19.92654
       O    14.34152  -11.66022  -19.24372
      H1    13.77328  -10.85561  -19.13677
       H    18.70987   -8.86742  -13.81430
       O    18.60775   -8.26503  -14.55038
      H1    17.65993   -8.02827  -14.60515
       H    14.09911   -9.94312   -8.34799
       O    14.53524   -9.16179   -8.85071
      H1    14.80055   -8.63847   -8.06406
       H    16.66233   -5.04932  -17.59706
       O    16.05433   -4.30002  -17.73351
      H1    16.53619   -3.51189  -17.56278
       H    17.67361   -3.58808  -11.33158
       O    17.58594   -4.19549  -10.55782
      H1    17.18206   -3.72956   -9.79499
       H    14.83081   -8.05402   -6.12023
       O    15.59802   -8.00795   -6.73025
      H1    15.86095   -7.10423   -7.00406
       H    19.06191   -2.33513  -15.80862
       O    18.53522   -2.84216  -16.46730
      H1    18.32857   -2.14897  -17.13624
       H    13.58618   -6.06596   -9.05630
       O    14.07139   -5.28047   -9.00796
      H1    13.48005   -4.74683   -8.38083
       H    14.84402   -9.78449  -14.73040
       O    14.59461  -10.67012  -14.41656
      H1    13.83069  -10.78241  -15.03001
       H    12.52194  -12.82408  -14.07137
       O    13.08841  -13.10724  -13.33375
      H1    13.90217  -13.37668  -13.73114
       H    15.73608   -9.75284  -11.88076
       O    15.59166   -8.86265  -11.50535
      H1    15.51055   -9.04116  -10.51271
       H    13.00833   -7.35366  -13.07664
       O    12.35596   -7.88733  -13.63543
      H1    12.52233   -8.82645  -13.51295
       H    19.14480   -7.75580   -9.88503
       O    18.16145   -7.85539   -9.93939
      H1    18.00119   -8.37009  -10.75316
       H    19.66512  -15.07091  -18.02319
       O    18.84067  -15.43337  -18.30611
      H1    18.10418  -14.80085  -18.27650
       H    19.72526  -10.67842  -12.83867
       O    18.88102  -10.20573  -12.58801
      H1    18.11293  -10.73750  -12.81226
       H    14.21912   -6.32318  -11.68042
       O    13.34511   -5.99803  -12.07456
      H1    12.67379   -6.04376  -11.38754
       H    15.08510  -11.21416  -16.07089
       O    15.64040  -11.80061  -16.60947
      H1    15.31151  -11.77175  -17.46772
       H    16.94784  -11.41445   -9.36785
       O    16.56523  -12.29589   -9.22921
      H1    16.04541  -12.50235  -10.02450
       H    18.37551   -4.11676  -14.06872
       O    18.91193   -4.83523  -14.47806
      H1    18.54419   -5.64671  -14.12599
       H    16.50408   -7.51978  -16.26096
       O    16.12223   -7.72254  -15.39138
      H1    15.61633   -6.93069  -15.11818
       H    15.42826   -2.09711  -12.84587
       O    14.49341   -2.00272  -12.60813
      H1    14.20211   -1.09893  -12.76469
       H    18.55415  -13.51226  -12.28014
       O    18.16875  -13.94776  -13.04361
      H1    18.39777  -13.41766  -13.81805
       H    17.95748  -10.58997  -18.56366
       O    17.69987  -11.21826  -19.26796
      H1    18.55207  -11.38896  -19.69113
       H    11.55444  -10.12355  -15.48901
       O    12.36744  -10.53196  -15.93118
      H1    12.10967  -11.50817  -16.17357
       H    14.13271  -14.75228  -16.49167
       O    13.36402  -15.25135  -16.85479
      H1    13.50827  -16.17555  -16.62955
       H    16.79924   -6.56207   -8.76942
       O    16.31947   -6.00163   -8.12449
      H1    15.52795   -5.71473   -8.59344
       H    16.84925  -12.66883  -12.97585
       O    16.60365  -11.70225  -12.94236
      H1    15.84362  -11.62350  -13.50405
       H    18.66877   -6.00816  -16.67989
       O    17.96222   -6.13449  -17.30937
      H1    18.50647   -6.55346  -18.04495

