138
frame 6 | Written by MDAnalysis XYZWriter (release 2.4.3)
       H    -2.96059  -16.22794  -10.55044
       O    -3.36061  -17.06573  -10.75420
      H1    -3.66493  -16.89176  -11.68759
       H     2.94417  -17.07108  -10.60417
       O     2.57038  -17.92665  -10.65251
      H1     2.46721  -18.11373  -11.59311
       H    -4.93798  -18.81005  -16.12251
       O    -5.24584  -18.50417  -16.95411
      H1    -5.85576  -19.17565  -17.23368
       H    -7.80556  -16.61707  -12.85818
       O    -7.90559  -17.34568  -12.21647
      H1    -7.21499  -17.97678  -12.39902
       H    -6.48757  -12.61378  -14.58027
       O    -5.87013  -13.36006  -14.71752
      H1    -5.21873  -13.17327  -15.38730
       H    -7.29052  -11.47326  -10.36262
       O    -7.17206  -10.95983  -11.17512
      H1    -6.21839  -10.80736  -11.31349
       H     0.68227  -18.32752  -16.59072
       O     1.45100  -18.79819  -16.82632
      H1     1.91234  -18.89681  -15.96592
       H    -3.96151  -17.72382  -13.56328
       O    -3.85089  -16.76933  -13.44784
      H1    -2.88604  -16.79739  -13.16241
       H     3.44704  -17.11851  -17.98797
       O     4.44391  -17.25665  -17.82816
      H1     4.45953  -17.99272  -17.22083
       H    -8.34170  -12.32401  -12.48688
       O    -8.40074  -13.19400  -12.77940
      H1    -7.90914  -13.67885  -12.10410
       H    -2.45236  -10.74791  -16.98251
       O    -1.77011  -11.44881  -17.01563
      H1    -1.69451  -11.80155  -17.89888
       H    -6.93200  -15.82183  -11.60642
       O    -6.87275  -14.83269  -11.34041
      H1    -6.03640  -14.41320  -11.57058
       H    -7.33484  -10.74975  -16.56330
       O    -7.23617  -10.80738  -15.62988
      H1    -8.00897  -10.45169  -15.22156
       H    -5.86487  -16.33836  -14.16451
       O    -6.68134  -16.04234  -14.48587
      H1    -6.66017  -15.05415  -14.39903
       H    -9.18694  -13.19446  -15.06095
       O    -9.65199  -12.98916  -15.88601
      H1    -8.91542  -12.61825  -16.44547
       H    -0.50882  -16.85403  -13.27851
       O    -1.15932  -17.47521  -12.89892
      H1    -0.93037  -17.36002  -11.96485
       H    -7.35879  -20.36592  -18.77309
       O    -7.39785  -19.62475  -18.14998
      H1    -7.21712  -18.91039  -18.79403
       H    -1.11366  -13.87301  -19.17812
       O    -1.43336  -12.91121  -19.15975
      H1    -0.95858  -12.42028  -19.87980
       H    -4.80067   -9.73702  -12.63871
       O    -4.42018  -10.32721  -11.97824
      H1    -4.02956   -9.75866  -11.29699
       H     1.52749  -15.40064  -14.94908
       O     2.11634  -15.24290  -15.68873
      H1     2.92479  -15.66676  -15.31309
       H     1.86251  -15.93606  -17.33323
       O     2.07054  -16.08400  -18.27990
      H1     2.58610  -15.31124  -18.54727
       H     2.64615  -19.03331  -13.39801
       O     2.39427  -18.09431  -13.39839
      H1     3.23099  -17.58672  -13.43070
       H    -5.73415  -19.12012  -11.36092
       O    -5.99972  -19.16298  -12.32980
      H1    -6.66602  -19.90283  -12.47962
       H    -3.83248  -18.07704  -18.21360
       O    -3.03836  -18.06787  -18.71788
      H1    -3.27062  -17.49560  -19.41362
       H    -4.77632  -13.12496  -13.28099
       O    -4.43126  -13.24794  -12.40156
      H1    -4.27545  -12.32724  -12.09801
       H    -2.75969  -12.79446  -16.56752
       O    -3.52007  -13.43529  -16.34271
      H1    -3.13310  -14.11958  -15.81714
       H    -2.96441  -13.88769  -11.42227
       O    -2.10780  -14.30813  -11.32617
      H1    -1.83897  -13.82617  -10.51801
       H     1.20610  -13.49181  -16.19026
       O     1.11962  -12.54991  -16.28675
      H1     0.23085  -12.42917  -16.55010
       H    -5.03943   -9.16575  -16.83356
       O    -4.45252   -9.17165  -16.05814
      H1    -4.91129   -8.93205  -15.25057
       H     0.98789  -15.75613  -12.45673
       O     0.58059  -15.46387  -13.31799
      H1     0.53139  -14.50986  -13.21324
       H    -0.30330  -11.39962  -10.37309
       O    -0.45444  -12.14963   -9.77972
      H1     0.18212  -12.07916   -9.04302
       H    -4.98725  -10.26993  -18.78491
       O    -5.58936   -9.59712  -18.44823
      H1    -5.92293   -9.12123  -19.21723
       H     1.88416  -11.63548  -17.79259
       O     2.36678  -11.66578  -18.61143
      H1     2.37037  -10.75808  -18.95723
       H    -3.51759  -12.25594   -8.44272
       O    -4.27369  -12.79074   -8.89661
      H1    -4.98749  -12.16317   -9.07440
       H    -1.74046  -16.21439  -15.93004
       O    -2.01909  -15.54708  -15.31383
      H1    -2.83710  -15.89870  -14.93631
       H     0.77967  -17.70004  -10.16181
       O    -0.14179  -17.56776  -10.07006
      H1    -0.60159  -18.41203  -10.05874
       H    -2.35313  -10.97023  -12.81536
       O    -1.57114  -11.48543  -12.64628
      H1    -1.77454  -12.29978  -12.19470
       H    -9.86588  -17.86348  -17.29702
       O    -9.60244  -17.08755  -17.85423
      H1    -8.80527  -16.75833  -17.38158
       H    -6.32363  -17.04646  -17.34962
       O    -6.96845  -16.29473  -17.22554
      H1    -6.96894  -16.08942  -16.28385
       H    -6.18183  -14.71723  -17.84941
       O    -5.84775  -13.95889  -18.32764
      H1    -4.99535  -13.67781  -17.93457
       H    -1.35678  -18.69391  -16.20073
       O    -1.14762  -17.86625  -16.70935
      H1    -1.83284  -18.01127  -17.36495
       H     2.82959  -14.49242  -10.18314
       O     2.06538  -15.09630  -10.18894
      H1     1.24575  -14.64290  -10.33367
       H     1.17226  -12.62815  -14.39524
       O     0.97612  -12.79025  -13.45042
      H1     0.12392  -12.26274  -13.34475
       H    -4.86233  -17.77231   -9.98783
       O    -5.32296  -18.47463   -9.56995
      H1    -5.88523  -18.00300   -8.92686
       H    -7.32945  -12.69084  -18.20016
       O    -8.12360  -12.13959  -18.12493
      H1    -7.78081  -11.22209  -18.27937
       H     0.85303  -10.77520  -14.45308
       O     1.18675   -9.96736  -14.06148
      H1     1.89724   -9.74981  -14.68081

