138
frame 11 | Written by MDAnalysis XYZWriter (release 2.4.3)
       H     8.31442    5.45583  -13.97866
       O     7.74558    5.81166  -13.24527
      H1     8.21361    6.64721  -13.20613
       H     4.27192    6.68483  -11.71766
       O     4.20622    5.75143  -11.63535
      H1     4.43694    5.49697  -10.69776
       H    11.94823    5.11173   -7.65022
       O    11.31150    4.99653   -6.90761
      H1    11.80482    5.10613   -6.04855
       H    12.35534   -0.24929  -10.65925
       O    11.61449    0.28265  -10.34578
      H1    11.63172    1.14843  -10.79317
       H    13.13810    0.20012   -7.15363
       O    13.25908    0.13489   -8.12960
      H1    12.40070    0.02859   -8.51109
       H    13.01923    4.08227  -11.37339
       O    13.97649    4.31302  -11.45556
      H1    14.24597    4.05310  -12.35245
       H     4.67734   -4.00636   -7.26724
       O     4.74286   -3.49524   -8.13444
      H1     5.61636   -3.74108   -8.45975
       H     9.93069    0.72469   -7.24884
       O     9.93739   -0.02188   -7.97615
      H1     9.41153    0.26053   -8.72452
       H     5.04540    4.45491   -8.57329
       O     4.37696    5.11772   -8.86054
      H1     3.60231    4.80088   -8.33830
       H     4.77951   -0.13271   -9.15813
       O     5.44775    0.14037   -9.75320
      H1     5.03967    0.81428  -10.39302
       H     4.82886    2.78458  -14.27699
       O     4.31024    1.95216  -14.24732
      H1     4.90021    1.20388  -14.42500
       H    11.03192   -3.99633  -11.03814
       O    10.88937   -4.48282  -11.83788
      H1    11.02136   -3.86510  -12.51760
       H     9.85314    0.97822  -15.98314
       O     9.11090    1.48422  -15.67987
      H1     9.09480    1.36436  -14.73990
       H    10.39204   -1.99764  -13.04627
       O    10.93660   -2.52323  -13.69111
      H1    11.83018   -2.23659  -13.61505
       H     4.48693    5.21739  -14.33746
       O     5.33578    4.70321  -14.42445
      H1     5.97508    5.15513  -13.84469
       H     6.54026   -3.28060  -13.02824
       O     6.54716   -2.57319  -13.69647
      H1     5.67956   -2.64168  -14.22743
       H     7.85227   -2.95435   -8.63304
       O     7.44449   -3.50123   -9.31062
      H1     7.30171   -2.82190   -9.99914
       H    13.43935   -1.81301  -12.27459
       O    13.23136   -1.65398  -11.30159
      H1    12.69886   -2.37654  -10.92529
       H     2.71643   -1.37712  -10.90240
       O     3.14396   -2.06779  -11.38383
      H1     3.19245   -2.87872  -10.91181
       H     5.95259   -1.61876   -5.36200
       O     6.61314   -2.06475   -4.84403
      H1     6.98465   -1.46392   -4.18340
       H     9.10794    2.94713  -10.66712
       O     9.13656    3.54880  -11.44492
      H1     8.43842    4.15381  -11.38178
       H     5.28461    1.74358   -3.23617
       O     5.43889    2.53693   -3.75400
      H1     5.19568    3.32503   -3.17596
       H     0.80702    1.49838   -9.67247
       O     1.56456    1.10446  -10.13793
      H1     2.27290    1.76777  -10.22016
       H     6.64786   -0.74675  -15.04662
       O     5.96391   -0.21009  -15.46895
      H1     6.32067    0.54334  -15.95480
       H    13.52405    1.70898   -5.09210
       O    12.85181    0.99952   -5.38884
      H1    12.32471    0.84476   -4.59908
       H     6.13372    2.69864   -7.65739
       O     6.54298    3.47108   -8.14074
      H1     6.98429    4.10105   -7.57003
       H     4.40478    2.05435  -12.34841
       O     4.18257    2.13627  -11.39904
      H1     4.11898    3.04924  -11.20430
       H     7.11104    0.86187   -9.37076
       O     7.84624    1.49159   -9.37249
      H1     7.41475    2.23769   -8.84361
       H     8.12679    6.21195   -6.37520
       O     8.53114    5.61954   -7.02225
      H1     9.50948    5.69644   -6.94163
       H     8.76935    6.60571   -8.34098
       O     9.00685    7.31810   -8.96034
      H1     8.26651    7.95843   -8.89265
       H     4.25991    3.93380   -4.94720
       O     3.42514    4.28898   -5.26139
      H1     2.92085    3.49384   -5.33393
       H     8.37880    0.90778  -12.87547
       O     7.79550    1.59787  -13.16057
      H1     8.22692    2.44553  -12.85510
       H    10.28178   -0.05924  -11.40981
       O     9.66696   -0.18849  -12.20057
      H1     8.83610   -0.55345  -11.85087
       H     8.95958   -1.46694   -7.72765
       O     8.68148   -2.32104   -7.39579
      H1     8.33446   -2.11380   -6.51586
       H    11.70085   -3.45673   -8.78296
       O    11.16567   -2.88721   -9.39992
      H1    11.22363   -2.00441   -8.97319
       H    11.50125    1.84666   -5.93995
       O    10.60137    2.13586   -6.18718
      H1    10.66228    3.10391   -6.38820
       H     4.66248   -1.51368   -7.20952
       O     4.90704   -0.83900   -6.60382
      H1     4.06058   -0.55853   -6.14037
       H    11.90106    2.52408  -12.51259
       O    11.66010    2.82193  -11.62779
      H1    10.71910    3.16026  -11.74704
       H    13.76314    1.79946   -9.43449
       O    14.62196    2.05973   -9.90868
      H1    14.38742    2.93176  -10.22171
       H     8.67971    0.29349   -3.66142
       O     8.41003   -0.54113   -3.12927
      H1     8.48450   -0.27021   -2.19862
       H     6.64576   -0.78638  -10.77058
       O     7.29474   -1.30862  -11.22550
      H1     6.96514   -1.53490  -12.07173
       H     9.08001    2.18913   -4.72925
       O     8.41571    1.84099   -4.06712
      H1     7.61993    2.29770   -4.40752
       H     9.43521   -5.58685  -11.03825
       O     8.86778   -5.78396  -10.24169
      H1     8.58639   -4.87752   -9.98662
       H     4.74178    7.13832   -8.60176
       O     4.94825    7.91105   -8.08420
      H1     4.12881    8.45223   -8.12303
       H     5.19407    0.81763   -6.64757
       O     5.30088    1.74845   -6.63211
      H1     5.32296    2.03069   -5.70256
       H     1.50181   -0.18227   -9.03681
       O     1.64523   -0.76499   -8.28619
      H1     1.23957   -1.58357   -8.48600

