138
frame 8 | Written by MDAnalysis XYZWriter (release 2.4.3)
       H    -6.32800  -16.89236   10.02289
       O    -5.88499  -16.39435    9.36692
      H1    -5.26541  -16.99677    8.93990
       H    -7.10638  -15.18882    6.59210
       O    -6.33684  -15.16628    5.93246
      H1    -6.67096  -15.63007    5.18765
       H   -10.71088  -19.07834    5.53590
       O    -9.77086  -18.97700    5.76145
      H1    -9.60266  -19.90974    5.92354
       H    -9.11827  -18.40450    2.97342
       O    -8.50038  -19.03189    3.28887
      H1    -8.89264  -19.27862    4.16108
       H    -8.47831  -11.23120    6.00983
       O    -8.74338  -11.39602    5.10035
      H1    -9.52753  -11.96796    5.07122
       H   -10.58177  -13.93570    4.41694
       O   -10.61197  -13.16506    3.80953
      H1    -9.86137  -13.38473    3.23808
       H   -10.64421  -14.15234    7.44032
       O   -10.40540  -14.66050    8.20686
      H1   -11.24427  -14.87953    8.64311
       H   -15.80152  -19.14528    0.44586
       O   -15.57044  -18.22689    0.80886
      H1   -15.73143  -18.30328    1.75023
       H   -10.27242  -19.61572   -0.03521
       O   -10.63668  -19.10344   -0.71285
      H1   -11.14389  -18.40038   -0.27843
       H   -16.11127  -17.88651    4.07314
       O   -15.48850  -18.24643    3.38947
      H1   -15.22669  -19.13351    3.66900
       H   -12.64387  -19.77969    6.63024
       O   -12.66931  -19.10966    5.88814
      H1   -13.10573  -19.62888    5.15456
       H    -4.66076  -15.58901   10.63848
       O    -4.56461  -15.06270   11.46547
      H1    -3.73865  -15.18841   11.96456
       H   -12.47330  -17.05029   11.53436
       O   -12.30391  -17.66370   12.30294
      H1   -11.93192  -17.02985   12.93056
       H   -12.30403  -10.92640    3.54963
       O   -11.96996  -11.11665    2.67674
      H1   -11.37425  -11.89550    2.85565
       H   -14.13436  -15.66640    2.16476
       O   -14.85512  -15.48420    1.51211
      H1   -15.68876  -15.77188    1.84158
       H   -11.17884  -16.58772    2.97237
       O   -10.24298  -16.85047    2.82377
      H1   -10.06324  -16.43091    1.99547
       H   -10.46126  -16.02773    4.81493
       O   -10.45320  -15.23928    5.39771
      H1   -10.34538  -15.61359    6.28196
       H    -7.29059  -17.89044    4.24913
       O    -6.64487  -17.13699    4.15319
      H1    -6.97821  -16.81815    3.33973
       H    -9.10393  -17.12565   10.68184
       O    -9.56244  -17.84043   10.21585
      H1    -9.18223  -17.87819    9.34596
       H   -13.45347  -17.57739    6.88178
       O   -13.87784  -16.86390    7.47107
      H1   -14.30725  -17.41485    8.18897
       H    -2.13925  -17.38064    4.69371
       O    -1.78994  -17.41979    5.58869
      H1    -0.81057  -17.62045    5.50430
       H    -4.25114  -18.95582    8.14433
       O    -4.32660  -18.57470    9.02080
      H1    -3.46941  -18.29571    9.30477
       H    -5.29703  -15.52583    0.44759
       O    -4.71102  -15.26163   -0.28012
      H1    -3.81463  -15.49681   -0.00065
       H    -2.99288  -14.74648    6.39096
       O    -3.51742  -14.57808    5.60228
      H1    -4.37146  -14.98474    5.86458
       H    -7.18588  -12.36735    4.41016
       O    -6.48749  -12.94309    4.15567
      H1    -6.67699  -13.71955    4.70742
       H    -8.05103  -17.41797    6.80738
       O    -7.75369  -17.61499    7.72402
      H1    -7.17513  -16.91551    8.05102
       H   -11.03484  -13.95737   11.11131
       O   -10.66107  -13.29244   11.72353
      H1   -11.30945  -13.38108   12.46875
       H    -4.48298  -18.01022    1.87463
       O    -4.90715  -18.66070    2.38370
      H1    -5.64234  -18.26872    2.86149
       H    -7.51057  -14.68905   11.06170
       O    -8.07828  -15.48175   11.17833
      H1    -7.53072  -16.03784   11.75623
       H    -7.11780  -16.48972    0.69624
       O    -6.87540  -15.90168    1.46038
      H1    -7.29981  -15.04361    1.31196
       H   -15.94175  -18.99187    8.88853
       O   -15.01159  -18.76901    9.02644
      H1   -14.65207  -19.62292    9.19336
       H   -15.05604  -15.93248    6.65280
       O   -15.62227  -15.26295    6.14331
      H1   -15.97346  -14.81335    6.87327
       H    -8.70680  -14.99101    8.52043
       O    -7.80569  -14.81165    8.20662
      H1    -7.19041  -15.24054    8.75217
       H    -8.70770  -12.65347    1.18923
       O    -8.85426  -13.49540    1.65486
      H1    -9.21229  -14.10820    0.98434
       H   -17.96111  -17.56004    5.08931
       O   -17.47072  -16.86745    4.62896
      H1   -16.98489  -16.29206    5.25319
       H    -8.87390  -16.40879   -0.25845
       O    -9.66122  -15.88247    0.08052
      H1   -10.44324  -15.87367   -0.45689
       H   -12.22852  -12.64380    7.22024
       O   -11.68158  -12.60908    6.42971
      H1   -12.05439  -13.18598    5.79101
       H    -8.04243  -18.42842   -0.63350
       O    -7.49916  -17.64739   -0.61481
      H1    -6.95937  -17.57238   -1.42922
       H   -14.00958  -13.47386    4.15738
       O   -13.46392  -14.01252    4.74760
      H1   -14.13504  -14.50623    5.22099
       H   -11.44536  -16.83191    9.72395
       O   -12.17563  -16.23921    9.70632
      H1   -12.62025  -16.41601    8.85567
       H    -7.56233  -12.93766    7.90380
       O    -7.45471  -11.98081    7.74366
      H1    -6.55563  -11.87167    7.37276
       H    -2.93227  -18.85411    6.32814
       O    -3.44290  -19.61000    6.57821
      H1    -2.76347  -20.19817    6.90322
       H   -12.62019  -19.21844   14.57295
       O   -12.44188  -19.77532   13.80736
      H1   -12.42973  -19.05099   13.10769
       H   -12.27686  -16.22603   -0.87444
       O   -11.79263  -15.78583   -1.56126
      H1   -11.83635  -16.49660   -2.20143
       H   -13.80249  -16.96274    3.54541
       O   -13.02297  -16.40704    3.46509
      H1   -12.98173  -15.76648    4.15571
       H   -12.41167  -17.28321    1.57823
       O   -12.42639  -17.36029    0.59233
      H1   -13.32385  -17.41766    0.44476

