138
frame 7 | Written by MDAnalysis XYZWriter (release 2.4.3)
       H    -5.91084    5.63883   -7.47789
       O    -5.51172    4.89236   -7.03758
      H1    -6.21234    4.55405   -6.46941
       H   -10.49784    9.25895  -12.02893
       O   -10.10930    8.83162  -12.76499
      H1   -10.19301    7.87245  -12.57757
       H   -11.49823    7.23925   -4.81830
       O   -10.61684    6.99734   -4.79642
      H1   -10.43070    7.05699   -3.85429
       H    -7.57280    6.97348   -7.88672
       O    -7.87659    6.72655   -7.03836
      H1    -8.72918    6.28555   -7.07210
       H   -10.43682    4.57422   -7.05545
       O   -10.26077    5.03436   -7.86108
      H1    -9.93175    4.31160   -8.45835
       H    -6.50037    3.23364   -4.58422
       O    -6.21397    2.94790   -3.67505
      H1    -6.71341    2.08824   -3.48128
       H   -10.73134    4.07820   -4.35782
       O   -10.04512    4.40139   -4.95713
      H1   -10.23458    5.32754   -5.12569
       H    -7.81886    9.72248   -6.26537
       O    -7.11967    9.15338   -5.83669
      H1    -7.53452    8.27373   -6.01980
       H    -9.59472   11.58343   -8.42807
       O    -9.83344   10.66242   -8.47970
      H1   -10.08697   10.42868   -7.57946
       H    -7.53685    2.62944   -6.33396
       O    -7.59676    3.55944   -5.97645
      H1    -8.45094    3.67255   -5.56607
       H    -4.27573    7.37736   -4.90206
       O    -4.49252    8.23645   -4.56116
      H1    -5.45368    8.38474   -4.78590
       H    -4.08391    9.48425   -3.29966
       O    -3.77052   10.09713   -2.63047
      H1    -4.37152   10.04602   -1.88250
       H    -3.44760    7.65181  -10.75568
       O    -4.03827    6.98291  -11.07944
      H1    -4.33451    7.27676  -11.92729
       H    -7.50720   11.62280   -4.03332
       O    -7.23469   12.55795   -4.17308
      H1    -7.04745   12.62012   -5.12346
       H    -4.52666    6.36147   -2.82241
       O    -4.78492    6.29213   -1.92762
      H1    -4.65038    5.35564   -1.69269
       H    -6.17970    7.27910  -14.27699
       O    -5.86459    6.74166  -13.55258
      H1    -5.08144    6.32296  -14.00204
       H    -6.66969    1.79729   -8.12037
       O    -7.24362    1.21257   -7.65499
      H1    -6.63418    0.79558   -7.05374
       H   -12.78408   11.20102   -5.43653
       O   -12.80491   10.60540   -6.17073
      H1   -13.61659   10.81860   -6.69663
       H   -10.54373    9.50284   -9.46800
       O   -10.87368    8.65782   -9.93404
      H1   -11.81086    8.91090  -10.14944
       H   -11.07276    5.58999  -12.82522
       O   -10.43508    6.17140  -13.25791
      H1    -9.62257    5.68487  -13.34268
       H   -12.33976    5.13832  -11.19736
       O   -12.09457    4.56346  -11.92119
      H1   -12.95446    4.28160  -12.31828
       H    -7.23905    3.58710   -9.15895
       O    -6.30115    3.36487   -8.99964
      H1    -6.10529    3.82968   -8.16087
       H    -6.21648   10.85004   -8.97546
       O    -5.50028   11.38942   -8.43667
      H1    -5.44037   12.21994   -8.92229
       H   -13.30896    6.80071   -6.67557
       O   -13.62946    6.23015   -7.42004
      H1   -12.93868    6.36344   -8.10146
       H    -7.37850    9.88014  -11.76437
       O    -7.60455    9.77949  -12.68905
      H1    -8.53506    9.41268  -12.76291
       H   -11.02344    3.21820  -12.07678
       O   -10.13878    2.83257  -12.32705
      H1    -9.66947    3.54560  -12.75304
       H    -9.43813    3.02711  -10.53983
       O    -9.14378    3.02056   -9.62843
      H1    -9.23535    2.11022   -9.31433
       H   -11.65763    6.99381   -9.51595
       O   -12.01485    6.09057   -9.55645
      H1   -11.43722    5.62433   -8.91097
       H    -4.20268    5.09787   -5.98891
       O    -3.58840    5.45917   -5.29155
      H1    -2.85497    4.83998   -5.11585
       H    -1.43267    8.05757   -9.05754
       O    -1.99523    8.64148   -9.67881
      H1    -2.71245    9.04745   -9.14766
       H    -3.19897    4.00561  -11.36981
       O    -2.56103    4.66878  -11.05422
      H1    -3.01961    5.44159  -10.74944
       H    -4.30953   10.15063   -7.46546
       O    -4.04533    9.16417   -7.35719
      H1    -3.70381    9.07434   -6.48172
       H    -9.79951   13.30329   -8.29793
       O    -9.53413   13.06435   -7.41269
      H1   -10.27017   13.45887   -6.92490
       H    -7.09211    4.79601   -1.41686
       O    -7.46583    4.63933   -2.30012
      H1    -6.99568    3.92371   -2.75405
       H    -5.48470    7.33405   -9.69747
       O    -5.95947    7.71658   -8.93379
      H1    -5.25651    8.21493   -8.43036
       H   -11.32155    9.79372   -5.78687
       O   -10.35682    9.63836   -5.89263
      H1   -10.27205    8.72601   -5.48424
       H    -6.12908   12.32414   -7.18228
       O    -6.65604   12.95766   -6.72711
      H1    -7.54776   13.01003   -7.12443
       H    -7.37175    8.94392   -9.90444
       O    -7.51564    9.92605   -9.94286
      H1    -8.33704   10.08671   -9.41778
       H    -7.84366    7.44670   -2.22302
       O    -7.12911    8.00466   -1.85912
      H1    -6.42925    7.30271   -1.91516
       H    -6.37095    3.13983  -10.74824
       O    -6.35841    2.73745  -11.61290
      H1    -6.57416    3.40856  -12.23813
       H   -10.13656    9.52939   -2.86600
       O   -11.14228    9.58243   -2.88416
      H1   -11.36646    9.35723   -1.94378
       H   -10.57108    0.53582   -7.67614
       O   -10.48895    1.34377   -7.17537
      H1   -10.15722    1.07575   -6.34845
       H    -7.71861    4.87957  -14.62546
       O    -7.94677    5.07135  -13.71368
      H1    -7.20448    5.69239  -13.41495
       H    -8.92668    5.94029   -2.23586
       O    -9.48422    6.70861   -2.20663
      H1   -10.03726    6.60997   -1.37281
       H    -7.80586    9.52710   -2.86484
       O    -8.33501   10.00019   -3.49101
      H1    -8.13760    9.60107   -4.31929
       H   -13.21536    8.67087   -5.78943
       O   -13.17421    7.78303   -5.34950
      H1   -13.62382    7.83841   -4.47935

