138
frame 6 | Written by MDAnalysis XYZWriter (release 2.4.3)
       H    -0.82731    9.16774    9.32679
       O    -1.50430    9.71332    8.89003
      H1    -2.30741    9.42545    9.19708
       H     1.94593    3.71241    2.02912
       O     1.66143    4.32071    2.74876
      H1     1.56670    5.13361    2.31578
       H     0.02327    5.27256    4.40393
       O     0.40275    5.92047    5.03951
      H1     1.38244    5.80017    5.07309
       H    -2.72857    7.64498   -0.28372
       O    -3.38877    7.02991    0.04399
      H1    -3.63209    6.54129   -0.72373
       H   -10.08632    6.40611    5.52063
       O    -9.43260    6.66971    4.87903
      H1    -8.58204    6.45965    5.32374
       H     2.78571    6.40498    6.40142
       O     3.07520    6.15073    5.53136
      H1     3.82523    5.51599    5.75384
       H    -0.94958    4.19329    9.48171
       O    -1.46649    3.82646    8.74378
      H1    -2.02233    3.14585    9.17467
       H    -3.25651    5.83638    1.30463
       O    -3.31456    4.94087    1.68642
      H1    -2.63764    4.90024    2.41765
       H    -2.82481    1.98396    4.38058
       O    -3.80160    1.91901    4.29817
      H1    -3.83460    1.24076    3.57998
       H     0.64428    7.48215    0.45503
       O     1.44531    7.05793    0.77207
      H1     2.03400    7.74977    1.14701
       H     1.60721    9.20548    5.28758
       O     2.30213    9.31539    5.96839
      H1     2.26841   10.25455    6.12549
       H    -6.70332    8.40254    2.04183
       O    -7.11454    8.18593    1.15942
      H1    -6.45785    8.31428    0.55670
       H     0.68811    5.91926    9.48538
       O     0.08573    5.56971   10.11692
      H1    -0.02036    6.27700   10.77969
       H    -4.66634    8.40107   10.02829
       O    -5.16687    7.93685    9.37782
      H1    -5.21310    8.59548    8.61564
       H    -3.69694    8.38687    1.67898
       O    -4.03808    8.93547    2.42129
      H1    -4.43120    9.66884    1.97522
       H    -6.35745    7.51983    4.76217
       O    -6.20696    7.85239    3.83683
      H1    -5.25461    8.13501    3.79568
       H    -1.26638   11.91239    9.31482
       O    -0.80253   12.68029    9.58927
      H1    -0.93473   13.17802    8.76795
       H    -7.63200    5.43312    9.41552
       O    -7.64783    4.72290    8.73694
      H1    -6.87746    4.84268    8.23838
       H    -1.46184    3.75222    3.63359
       O    -1.67823    4.67216    3.59856
      H1    -2.34074    4.89675    4.27876
       H    -4.83681    9.82213   12.03974
       O    -4.08779    9.62720   11.48619
      H1    -3.29969    9.71622   12.07228
       H    -1.46482    5.74998    7.69816
       O    -1.28780    6.63269    7.35224
      H1    -0.58420    6.42111    6.66523
       H    -6.39521    6.27246    6.60879
       O    -7.05980    6.86009    6.18244
      H1    -7.55121    7.13853    6.94453
       H    -4.47353   12.12364    3.67098
       O    -4.77382   12.42388    2.79887
      H1    -5.68500   12.19562    2.69778
       H    -1.52256   14.12715    6.82174
       O    -0.76225   14.22792    7.42921
      H1    -0.02357   14.07588    6.82494
       H    -5.06591    6.49505    8.26397
       O    -5.15258    5.68519    7.70929
      H1    -4.43063    5.58705    7.08225
       H    -0.73078    9.38866    2.95981
       O    -1.52819    9.94867    2.68625
      H1    -2.27222    9.41837    2.96212
       H    -1.06833   11.76903    4.89569
       O    -0.94707   12.32333    4.13278
      H1    -1.19501   11.70394    3.45142
       H     0.84689    8.29055    9.27326
       O     0.53207    8.73809   10.09023
      H1     0.52997    8.21157   10.91019
       H    -4.53217    9.31742    6.41310
       O    -5.26551    9.54722    7.08662
      H1    -6.04406    9.21465    6.56990
       H    -0.80397   11.19836    0.94113
       O    -0.42902   11.50450    0.08094
      H1     0.06437   12.31274    0.27035
       H    -0.74004    9.35309    0.08217
       O    -0.85038    8.48763   -0.28661
      H1    -0.54099    8.58967   -1.21656
       H    -0.67736    3.78390    6.90517
       O     0.03053    3.44969    6.36691
      H1     0.18629    4.15963    5.76337
       H    -7.92457    6.68908   11.30673
       O    -7.71329    6.93166   10.37780
      H1    -6.81237    7.26187   10.26793
       H     1.17336    3.05984    7.63177
       O     1.86677    2.62421    8.18835
      H1     2.68789    2.67641    7.70976
       H    -1.41144   10.31948    6.95835
       O    -1.42649   10.62096    6.08866
      H1    -2.28909   11.00132    6.02286
       H     2.79786    7.40394    8.40694
       O     2.02495    7.28720    7.80269
      H1     2.04345    8.00422    7.12811
       H     0.58528   13.13884    3.96033
       O     1.32873   13.54449    3.50540
      H1     1.15337   14.45229    3.22577
       H     1.52879    8.43727    3.17551
       O     0.73115    8.53769    3.73524
      H1     0.58496    7.63106    3.99998
       H    -6.21494   12.52255    9.47591
       O    -6.08778   11.55658    9.66484
      H1    -6.89217   11.09728    9.45102
       H    -0.32892    2.03129    4.88780
       O    -0.72466    1.50994    4.14896
      H1    -0.19962    1.58029    3.33938
       H    -4.70642    4.94661    4.28530
       O    -4.16738    4.77883    5.06575
      H1    -4.21862    3.83235    5.10111
       H    -6.12508   11.35470    7.12187
       O    -6.52476   12.19245    6.84101
      H1    -7.46447   12.05564    6.97416
       H    -4.85177    5.52316    2.27674
       O    -5.72443    5.41559    2.68515
      H1    -5.93611    6.39808    2.87380
       H     0.55716   11.53085    9.31789
       O     1.47234   11.29330    9.64552
      H1     1.34169   10.40938    9.91804
       H    -2.32054    7.89481    5.92812
       O    -3.01701    8.44360    5.57959
      H1    -2.57345    9.27224    5.27370
       H    -3.65726   12.95681    5.48578
       O    -3.82907   11.99720    5.43991
      H1    -4.74649   11.98271    5.69689

