138
frame 2 | Written by MDAnalysis XYZWriter (release 2.4.3)
       H     9.21222    6.19370   12.20835
       O     8.82880    6.58450   11.40750
      H1     8.39477    7.41674   11.63620
       H     4.17850   12.41199   18.61441
       O     4.26935   11.48286   18.38934
      H1     5.18188   11.17667   18.57053
       H     6.54494   12.44051   15.34472
       O     7.19328   12.70750   16.00317
      H1     7.72704   11.93665   16.17037
       H     5.67350    4.07601   11.14355
       O     4.74535    3.94614   11.34277
      H1     4.73042    3.12313   11.88931
       H    10.38635    6.35434   17.21737
       O     9.99078    7.17765   17.35469
      H1    10.57690    7.82919   16.99883
       H     2.79568    3.47169    8.84874
       O     3.77898    3.61644    8.91705
      H1     4.06752    3.49508    9.84019
       H    10.80545    5.34343   13.77897
       O    10.51504    6.25446   13.90397
      H1     9.70961    6.09466   14.43966
       H     5.83413    4.85434   17.75995
       O     5.95398    5.71536   18.23067
      H1     5.34444    6.24055   17.67995
       H    -0.71973    4.66762   13.83643
       O    -0.98516    4.84954   14.75694
      H1    -0.15620    4.85929   15.25501
       H     9.62951   11.35399   16.82453
       O     8.85429   10.85946   17.10475
      H1     8.88661   10.08016   16.50550
       H    10.77760    9.64834   13.89184
       O    11.18855    9.89233   13.06108
      H1    10.88065    9.25135   12.39777
       H     3.30856    6.55324   16.55851
       O     4.14124    7.11558   16.58368
      H1     3.89255    8.03671   16.35798
       H     5.31425    3.43091   14.88012
       O     5.50709    2.46322   14.90302
      H1     5.12618    2.12131   15.73133
       H     3.81309    0.28609   17.44533
       O     4.05057    0.20559   16.54220
      H1     4.83847   -0.34501   16.51003
       H     9.91146    7.78883   15.03133
       O     9.60143    8.67014   15.03008
      H1     8.70691    8.58149   14.63825
       H     5.05554    6.20078   15.43375
       O     5.63272    5.76528   14.77812
      H1     5.19692    5.95693   13.96160
       H     7.76322    1.91884   17.71555
       O     8.51223    2.35786   18.16706
      H1     8.55985    3.19236   17.72281
       H     7.48269    6.45183    7.66756
       O     6.66578    5.90682    7.80818
      H1     6.02697    6.45352    8.32702
       H     9.70056    1.23693   12.38657
       O     9.09807    0.51862   12.46702
      H1     8.45680    0.58082   11.78330
       H     3.53832   10.35346   15.23123
       O     3.28365   10.05898   16.09364
      H1     4.03988   10.47453   16.50025
       H     6.31028    2.03580   12.79341
       O     6.93390    2.06380   12.07251
      H1     6.37557    1.61491   11.34607
       H     2.91740    1.36472   19.94998
       O     3.13053    1.57688   19.05281
      H1     4.06367    1.76957   19.16012
       H     8.86239    4.32112   14.45741
       O     8.58177    4.89113   15.23464
      H1     7.70376    5.22214   14.90649
       H    12.29762    7.87353   11.95008
       O    11.68952    7.91639   11.18879
      H1    11.05374    7.19338   11.25790
       H     0.97854    9.95342   12.99554
       O     1.73026   10.59269   13.01950
      H1     1.32026   11.45319   12.97622
       H     1.23378    5.41907   12.79210
       O     1.71668    6.15330   13.05795
      H1     1.72750    6.04591   14.02967
       H     1.12956    6.27568   16.78047
       O     1.85277    5.80262   16.36247
      H1     1.82560    4.94468   16.81220
       H     1.57950    2.55080   16.47479
       O     2.26339    3.20871   16.87480
      H1     2.62479    2.89582   17.75231
       H     4.32338    5.53959   12.03390
       O     4.25702    6.41304   12.43439
      H1     3.29798    6.51980   12.66681
       H     4.36048    8.04548   11.76383
       O     4.58737    8.64673   11.03629
      H1     5.59095    8.60806   10.97645
       H     5.34346    1.87018   18.17080
       O     5.56573    2.79281   18.10032
      H1     5.95852    3.05608   18.97919
       H    10.24594    3.14834   12.57060
       O     9.42627    3.56132   12.86451
      H1     8.88826    2.81216   12.81322
       H    10.06077    1.49125   17.32919
       O    10.77998    1.41535   16.67391
      H1    11.34210    0.67389   16.96719
       H     4.45623    5.55559    9.10319
       O     4.31511    6.52978    9.04967
      H1     4.33616    6.91235    9.92163
       H     1.68516   10.21643   16.77487
       O     0.83307   10.35285   17.13702
      H1     0.83760   11.19985   17.57093
       H     7.42079    6.95559   18.60658
       O     7.95347    7.58427   19.12929
      H1     8.71966    7.67563   18.56758
       H     6.96684    9.29209   18.93598
       O     6.82648   10.20682   18.66498
      H1     7.61049   10.39139   18.06709
       H     0.60533    7.45647   12.94269
       O    -0.06337    8.18470   12.89332
      H1    -0.61234    8.12736   13.63842
       H     4.32241    1.95038   13.62177
       O     3.96010    1.73539   12.72850
      H1     3.03063    1.86042   12.88931
       H     7.01898    9.48020   12.30234
       O     7.60912    9.18215   11.56195
      H1     7.86590    9.96269   11.09412
       H     4.31506    9.81670   12.42101
       O     4.80600   10.01624   13.24292
      H1     4.85112   10.91803   13.36830
       H     8.97368    0.39220   14.40760
       O     8.92783   -0.09156   15.23461
      H1     9.45842    0.44270   15.84259
       H    -0.73332    4.02987   11.54020
       O    -0.13463    4.03821   12.34212
      H1     0.30544    3.17589   12.36868
       H     8.09016    3.55020    9.96714
       O     8.60221    2.80697    9.69362
      H1     8.10707    2.11031    9.29436
       H     6.55768    7.81942   15.15631
       O     6.97560    8.40233   14.49011
      H1     6.22527    8.98630   14.23275
       H     6.96830    5.37076    9.38169
       O     7.04735    4.85970   10.19618
      H1     7.70725    5.41583   10.64764

