138
frame 3 | Written by MDAnalysis XYZWriter (release 2.4.3)
       H   -15.43205   12.94608   18.10108
       O   -15.33136   12.07420   17.66240
      H1   -15.41756   11.41104   18.38188
       H   -18.12477    6.19865    9.45932
       O   -17.87626    6.30830   10.35394
      H1   -18.59037    6.64577   10.93255
       H   -10.92461    5.51932   12.47656
       O   -11.83727    5.76561   12.68073
      H1   -11.88343    6.75770   12.66689
       H   -16.09457   12.10222   12.39015
       O   -16.97031   11.94508   12.74615
      H1   -17.57138   12.42074   12.16516
       H   -16.50393    5.43831    7.36425
       O   -15.61277    5.02806    7.31202
      H1   -15.40721    4.85962    8.23905
       H   -13.74752    3.90196   11.98823
       O   -13.56299    2.94962   12.10652
      H1   -13.10474    2.78196   12.96123
       H   -14.14482    9.75771    6.93183
       O   -13.73136   10.08860    7.72167
      H1   -12.79576    9.96236    7.51456
       H   -11.16815    8.00969   10.55023
       O   -11.49959    7.59950    9.70292
      H1   -12.46836    7.78471    9.76024
       H   -14.57736   12.30573   15.78378
       O   -13.96426   12.20946   15.07326
      H1   -13.68439   13.03700   14.77430
       H   -16.51784    4.93857   10.33876
       O   -15.87802    4.28210   10.06227
      H1   -16.32397    3.58943    9.60168
       H   -14.81499    5.26934   14.16832
       O   -14.55889    5.78629   13.39503
      H1   -13.55975    5.69356   13.39769
       H   -14.83396    7.48687    9.26808
       O   -14.14034    7.98386    9.72713
      H1   -14.09903    8.79635    9.22245
       H   -18.95481    5.23719   14.77175
       O   -18.00443    5.22038   14.66646
      H1   -17.93932    4.32973   14.30554
       H   -17.31822   10.30144    8.49317
       O   -17.66405    9.69590    7.84150
      H1   -17.36442   10.07284    6.99034
       H   -11.81128    8.08375    7.44170
       O   -11.25189    8.64793    6.89236
      H1   -11.82677    8.81068    6.15718
       H   -17.54223    6.91797   13.70139
       O   -17.44509    7.88109   13.82337
      H1   -16.65316    8.12794   13.34987
       H   -11.70418   10.84613   16.98064
       O   -11.50029   11.64863   16.40367
      H1   -12.31680   11.84885   15.98532
       H   -15.19633    2.24294   12.49037
       O   -16.09512    1.82228   12.45818
      H1   -16.15986    1.39292   11.51329
       H   -13.35272   11.05660   13.75302
       O   -12.99934   10.31439   13.21763
      H1   -13.85016    9.86445   13.13506
       H   -11.49421   13.46280   12.36405
       O   -12.09885   14.09529   12.72298
      H1   -11.60472   14.44429   13.44026
       H   -13.05397    8.74969   14.55009
       O   -13.00411    8.20014   15.39202
      H1   -13.83631    7.75402   15.38439
       H   -18.05475    8.39622   15.97481
       O   -18.59789    8.75730   16.69672
      H1   -18.51383    9.71115   16.74347
       H   -13.39332   10.40733   11.50504
       O   -13.73441   10.65194   10.65680
      H1   -14.60050   10.25662   10.62195
       H   -17.54950   12.71699   14.43162
       O   -17.93242   13.31227   15.14582
      H1   -18.20920   12.71958   15.85071
       H   -10.05008   11.16621   11.24976
       O   -10.34507   12.06726   11.54129
      H1   -10.57350   12.43925   10.66431
       H   -13.93100    5.47738   17.00776
       O   -13.35632    6.19385   17.28500
      H1   -12.55241    6.07505   16.73358
       H   -14.79521    8.50270   11.79229
       O   -14.96394    8.54179   12.75462
      H1   -14.72600    7.66938   13.07042
       H    -9.51906    8.11180   15.37530
       O    -9.25063    7.24464   15.78561
      H1   -10.03141    6.65850   15.67592
       H    -9.00744   10.10561   14.75239
       O    -9.89221    9.68760   14.78518
      H1   -10.38119   10.38592   15.30105
       H   -11.44577    5.39336    9.72970
       O   -11.10958    4.63386    9.26674
      H1   -11.35770    3.95964    9.94305
       H   -17.91414    7.17847    7.53059
       O   -18.20473    6.28417    7.67270
      H1   -19.03827    6.29459    7.27416
       H   -14.21867   12.25769   11.24280
       O   -14.71095   13.01288   11.70334
      H1   -13.94382   13.38679   12.22032
       H   -17.37805   11.87334   17.69023
       O   -18.21251   11.48112   17.38722
      H1   -18.93618   11.90740   17.91356
       H   -11.73138    9.25002   12.75294
       O   -11.22100    8.47993   12.41088
      H1   -10.34953    8.69334   12.68452
       H   -14.00975    7.65297   18.52572
       O   -14.73340    7.65346   19.17434
      H1   -14.30714    7.54109   20.03743
       H   -17.07249   14.14909    9.15585
       O   -16.27581   14.65110    9.25144
      H1   -15.81600   14.28892   10.02858
       H   -12.76895   12.83947    6.48854
       O   -13.57984   12.88699    6.99645
      H1   -13.67618   12.01774    7.32348
       H   -16.17455    5.22754   15.62988
       O   -15.28316    4.82657   15.83871
      H1   -15.45297    3.99482   16.26467
       H   -11.44585    4.50382   16.00716
       O   -11.31719    5.36415   15.57083
      H1   -11.71650    5.42565   14.68190
       H    -8.30648    9.66597   10.36320
       O    -9.27211    9.51990   10.50873
      H1    -9.49284    8.84705    9.89777
       H   -12.59144    9.03897   17.11466
       O   -12.12803    9.45407   17.83553
      H1   -11.62718    8.70461   18.22280
       H   -19.29284    9.25906    8.74560
       O   -19.93269    9.01589    9.38061
      H1   -19.66922    8.20315    9.81941
       H   -13.86955    5.77230    7.34587
       O   -12.96883    6.05229    7.44195
      H1   -12.48654    5.46544    8.02466
       H   -19.49173   13.28257   12.14091
       O   -18.80161   13.52327   11.46975
      H1   -18.66994   14.47000   11.64785
       H   -12.12084   13.06908    8.53274
       O   -11.16919   13.29226    8.53254
      H1   -11.13680   14.05642    7.95722
       H   -16.87419   11.22640   10.55559
       O   -16.37620   10.95287    9.77181
      H1   -15.90906   11.76541    9.42144

