138
frame 1 | Written by MDAnalysis XYZWriter (release 2.4.3)
       H    -7.81943   -7.85153  -17.20907
       O    -7.50367   -8.61353  -17.76444
      H1    -7.12039   -8.30667  -18.56143
       H   -12.08159  -12.22561  -17.45570
       O   -12.29408  -12.78969  -16.65008
      H1   -11.58870  -13.43476  -16.46185
       H   -10.27275  -11.33633  -18.45448
       O   -11.09495  -11.66710  -18.87130
      H1   -11.24947  -11.11215  -19.67364
       H    -9.66010   -3.54828  -16.98084
       O    -9.83572   -4.46274  -16.72915
      H1   -10.54761   -4.76726  -17.31632
       H    -7.62319   -1.66047  -16.76195
       O    -8.43438   -2.07749  -17.20397
      H1    -9.21102   -1.50116  -17.07663
       H   -12.33344    1.32767  -15.06636
       O   -13.31001    1.52316  -15.30746
      H1   -13.37450    2.35233  -14.81784
       H   -17.42920   -5.01921  -14.82294
       O   -18.33622   -5.02192  -15.17895
      H1   -18.83729   -5.56383  -14.56027
       H   -15.21821   -0.30651  -17.37776
       O   -14.30341   -0.31612  -17.17509
      H1   -14.22806    0.40853  -16.56761
       H   -12.49196   -4.31984  -18.67407
       O   -11.84605   -5.04622  -18.60970
      H1   -11.41748   -5.16304  -19.46055
       H    -4.71090   -9.61882  -15.91520
       O    -5.20486   -9.78010  -16.72017
      H1    -5.96165   -9.19964  -16.94468
       H   -13.60537   -9.83835  -14.98532
       O   -14.22969   -9.89116  -14.21820
      H1   -15.00352   -9.41411  -14.49441
       H   -15.57540   -7.75933  -17.60669
       O   -16.41497   -7.39264  -17.40765
      H1   -17.02058   -7.73861  -18.09531
       H   -12.94190  -10.29209  -17.45383
       O   -12.50381   -9.69825  -16.80480
      H1   -11.58258   -9.98625  -16.72526
       H   -12.38534   -0.06540  -11.94427
       O   -11.42536   -0.25440  -12.14007
      H1   -11.28560   -0.08983  -13.07934
       H   -11.62638   -5.70568  -14.06508
       O   -11.51554   -4.77612  -14.27565
      H1   -10.89125   -4.64398  -15.01836
       H    -8.09992   -2.04536  -18.97765
       O    -7.82002   -2.01162  -19.90424
      H1    -7.62082   -2.91702  -20.11391
       H   -18.90702   -8.64676  -19.80566
       O   -18.60883   -8.44209  -18.89489
      H1   -18.73559   -9.26348  -18.39549
       H   -12.55404    1.05137  -19.86103
       O   -13.32607    0.48657  -19.98413
      H1   -13.48860    0.17815  -19.07504
       H   -11.34048   -7.36675  -10.58112
       O   -11.36279   -6.71286  -11.29198
      H1   -11.56403   -7.12136  -12.10779
       H   -16.05999  -11.11987  -18.07589
       O   -15.87992  -10.70931  -17.22379
      H1   -16.59371  -10.08201  -17.03806
       H   -14.87702   -5.21242  -14.99599
       O   -15.63978   -4.98450  -14.37716
      H1   -15.80094   -5.82375  -13.92597
       H   -15.14037    2.94548  -19.66092
       O   -15.64055    2.18812  -19.39066
      H1   -15.26725    1.48437  -19.88989
       H    -7.31680   -7.99426  -12.69810
       O    -8.14720   -7.57467  -12.57963
      H1    -8.03180   -6.74380  -13.04181
       H   -11.33105   -2.15818  -12.06301
       O   -10.87185   -3.02119  -11.95590
      H1   -11.16691   -3.57358  -12.67680
       H   -13.88761   -2.52301  -17.83776
       O   -13.69141   -3.05863  -18.56527
      H1   -14.26551   -2.98536  -19.27207
       H    -8.19443   -0.68171  -12.86573
       O    -8.34689   -1.57439  -13.20912
      H1    -8.83504   -2.07084  -12.55323
       H   -18.14479   -2.57392  -15.78863
       O   -18.23729   -2.47947  -16.70992
      H1   -18.64928   -1.59599  -16.76237
       H    -5.33895   -1.29089  -19.62025
       O    -5.29516   -0.53001  -19.02930
      H1    -4.54227   -0.00947  -19.36408
       H    -6.72493   -6.04995  -17.45945
       O    -7.47137   -6.08477  -16.84785
      H1    -8.15257   -5.50542  -17.13941
       H   -16.56680    0.94164  -18.40473
       O   -16.82088    0.08787  -17.99185
      H1   -16.89251   -0.59324  -18.70472
       H   -13.90645   -5.03323  -17.08437
       O   -13.89620   -5.66179  -16.36749
      H1   -12.98931   -5.93050  -16.15933
       H   -10.74189    1.13373  -19.60943
       O   -11.16643    1.85599  -19.11635
      H1   -10.47732    2.53125  -19.00107
       H    -5.72127   -0.43891  -17.27225
       O    -6.00482   -0.86175  -16.50611
      H1    -6.10278   -0.15211  -15.88346
       H   -12.81604   -8.16652  -13.59649
       O   -12.14765   -7.54343  -13.92396
      H1   -11.41658   -8.13828  -14.11355
       H   -15.14602   -0.96848  -15.66373
       O   -15.18438   -1.17495  -14.72564
      H1   -15.40152   -2.11049  -14.73469
       H   -17.21092   -4.06238  -17.47759
       O   -16.58450   -4.72029  -17.83190
      H1   -16.70660   -5.51462  -17.34271
       H   -13.44121   -2.13318  -14.70294
       O   -12.87975   -2.61231  -15.36760
      H1   -12.29918   -3.21271  -14.83732
       H   -11.50399   -0.90874  -17.69868
       O   -11.14657   -1.26616  -16.91649
      H1   -11.92811   -1.71310  -16.50070
       H   -12.61588   -8.24806  -18.04828
       O   -12.80828   -7.61625  -18.81258
      H1   -12.41158   -6.78254  -18.49120
       H   -18.42725   -9.21121  -15.57052
       O   -17.46620   -9.13888  -15.62956
      H1   -17.10697   -8.30345  -16.10193
       H   -10.78407   -0.25851  -15.50515
       O   -10.77778    0.34859  -14.76665
      H1   -10.19262    1.01949  -15.10604
       H    -5.13936   -5.46353  -18.15009
       O    -5.78852   -5.84286  -18.83294
      H1    -5.30108   -6.02734  -19.66017
       H    -7.75355   -4.73150  -13.52829
       O    -7.03478   -5.15174  -14.03421
      H1    -7.42552   -5.39794  -14.88779
       H    -8.23721  -11.77535  -17.25863
       O    -9.03716  -11.22390  -17.07967
      H1    -8.81838  -10.32621  -16.69092
       H   -10.32098  -10.41860  -13.59244
       O   -10.06336   -9.58494  -13.93296
      H1    -9.39225   -9.26361  -13.27152
       H   -14.87316   -3.75466  -13.14291
       O   -14.42062   -3.35519  -12.38214
      H1   -13.80533   -4.02809  -12.05360

