138
frame 3 | Written by MDAnalysis XYZWriter (release 2.4.3)
       H     2.89133    2.23873  -10.13532
       O     3.86087    2.22435  -10.30966
      H1     4.29320    2.46532   -9.51942
       H    -0.78229    4.48362   -8.95504
       O    -1.29660    5.06197   -8.34517
      H1    -1.35870    5.79081   -8.98295
       H     0.19667    1.89968   -8.39048
       O     0.89164    2.26307   -8.92830
      H1     0.76274    2.39003   -9.84605
       H     1.42586   11.01484  -12.96121
       O     2.19152   11.10869  -12.35241
      H1     1.86147   11.69596  -11.63277
       H    -0.81590    4.85220  -13.70453
       O    -1.30341    4.03255  -13.86032
      H1    -1.62014    3.73924  -13.00687
       H    -3.31400    7.07778  -10.34598
       O    -3.43077    6.36226  -10.97856
      H1    -3.33724    6.75607  -11.86244
       H     4.22291    4.95261  -19.06598
       O     3.30730    4.68392  -18.65510
      H1     2.98126    5.51925  -18.31767
       H    -6.35678    5.62841  -15.70473
       O    -5.95246    6.47490  -15.41055
      H1    -5.05128    6.27071  -15.40996
       H    -0.94042    5.98592  -17.72213
       O    -1.32714    6.42195  -16.93711
      H1    -1.85792    7.18525  -17.16999
       H     0.47666    8.36141   -9.18648
       O    -0.15220    7.83054   -9.67853
      H1     0.25567    6.95791   -9.93501
       H     1.41739    2.87430  -14.96328
       O     2.06614    2.70470  -14.22131
      H1     1.49140    2.56484  -13.45337
       H    -0.36087   10.38207  -16.23730
       O    -0.71445   11.14278  -15.68227
      H1    -1.17922   11.64719  -16.34561
       H     3.92931    8.71946  -11.38489
       O     4.59328    8.25010  -10.89049
      H1     5.28616    8.95991  -10.87026
       H     0.36178    3.19055  -18.01604
       O     0.74341    3.27499  -18.96450
      H1     1.63124    3.62488  -18.84634
       H     0.39476    2.31751  -12.30337
       O     0.87650    2.72456  -11.59054
      H1     0.66590    3.63404  -11.48161
       H    -4.79133    1.62087  -19.55593
       O    -4.04167    1.34390  -19.02452
      H1    -4.02528    1.80829  -18.16324
       H     1.69704    5.56809  -10.12394
       O     0.96426    5.53777  -10.77063
      H1     1.25463    6.01745  -11.56847
       H    -4.23260    8.95286  -13.92693
       O    -4.50722    9.62619  -14.58556
      H1    -5.45829    9.45835  -14.61250
       H     3.51883    7.93660  -18.51939
       O     2.74043    7.50352  -18.07424
      H1     2.39001    8.17983  -17.53058
       H     4.04010    4.80649  -12.79140
       O     4.62826    4.44728  -12.12680
      H1     4.12541    3.68809  -11.81455
       H     0.47713    7.30325  -13.44272
       O     0.38902    6.32173  -13.53966
      H1     1.28698    6.05479  -13.91550
       H     0.41119    0.10120  -13.39075
       O    -0.17916    0.91077  -13.35928
      H1    -0.63237    0.88530  -12.50086
       H     0.03278    7.53790  -16.61676
       O     0.53650    8.37683  -16.54410
      H1     1.09340    8.29328  -15.75876
       H     3.50833    0.67173  -11.30056
       O     3.62058   -0.25386  -11.60694
      H1     3.97862   -0.06550  -12.48852
       H     3.06862    8.87055  -14.59365
       O     2.19794    8.70062  -14.31246
      H1     2.09678    8.70053  -13.37506
       H    -1.97550    8.32833   -9.63083
       O    -2.90705    8.59618   -9.47362
      H1    -2.91901    9.45499   -9.90230
       H     4.82398    1.39770  -14.13140
       O     4.15312    0.70698  -14.40194
      H1     3.39904    1.24868  -14.57596
       H    -2.63105    3.09304  -10.91442
       O    -2.05846    3.82374  -11.04669
      H1    -2.77448    4.57248  -10.98663
       H    -2.83051    0.67252  -11.45422
       O    -1.89714    0.78319  -11.41242
      H1    -1.57991    0.37205  -10.61375
       H    -0.18866    1.98883  -16.05879
       O     0.18454    2.89073  -16.17502
      H1    -0.40394    3.48957  -15.73796
       H     1.85753   -1.69474  -14.17777
       O     1.08622   -1.22901  -14.67523
      H1     0.36037   -1.87757  -14.76098
       H    -2.70119    5.76096  -15.88735
       O    -3.27778    5.43506  -15.15811
      H1    -2.62836    5.13200  -14.53926
       H    -4.01464    0.79932  -10.01143
       O    -4.21584    1.73535  -10.32341
      H1    -5.17671    1.75106  -10.19050
       H    -6.61393    4.16274  -17.11649
       O    -6.87471    3.80374  -16.18407
      H1    -7.82925    3.82523  -16.19473
       H    -1.32023   -0.09785  -16.26852
       O    -1.77335    0.52948  -15.69597
      H1    -1.37575    0.39393  -14.83401
       H    -2.93565    1.98404  -16.37138
       O    -3.70262    2.49328  -16.60449
      H1    -3.65540    3.40460  -16.24708
       H    -5.04795    5.65463  -10.45099
       O    -5.95040    5.37398  -10.24589
      H1    -5.84882    4.43399  -10.11234
       H    -1.87522    5.03426  -19.44627
       O    -0.93314    5.21855  -19.44126
      H1    -0.41572    4.35778  -19.39275
       H    -2.65535    8.34641  -13.19471
       O    -3.26138    7.61158  -13.26551
      H1    -2.97721    7.19940  -14.13122
       H    -1.53663   10.40384  -13.94722
       O    -1.60269   10.14849  -13.00981
      H1    -1.51752   10.96754  -12.47844
       H    -3.08538    3.71777   -7.96785
       O    -3.38532    2.81341   -7.85793
      H1    -3.72301    2.53614   -8.72573
       H     1.91541    9.61887  -11.80173
       O     1.68295    8.65936  -11.58301
      H1     0.93975    8.73423  -11.00741
       H    -6.50474    4.06991  -14.43937
       O    -6.57556    4.12542  -13.47223
      H1    -6.86903    5.04761  -13.36886
       H     3.27888    4.48638   -7.74196
       O     2.85871    5.28154   -8.11320
      H1     1.91483    5.31993   -7.86479
       H     3.01870    4.59584  -14.51102
       O     3.05175    5.50182  -14.16662
      H1     3.66469    5.96118  -14.73786
       H    -3.21318    8.81547  -17.49938
       O    -3.67913    8.20221  -16.86129
      H1    -4.09670    8.76783  -16.20777

