138
frame 10 | Written by MDAnalysis XYZWriter (release 2.4.3)
       H    -5.99741  -16.45051   10.60201
       O    -5.20871  -16.29426   10.03917
      H1    -4.93510  -17.21635    9.91009
       H    -2.11055  -16.95502   15.30092
       O    -1.53402  -17.61655   14.91749
      H1    -1.68963  -18.43518   15.38138
       H    -6.21831  -16.77008   12.99848
       O    -6.25355  -15.84425   13.25290
      H1    -5.52761  -15.39161   12.72739
       H    -0.30950  -17.26420    3.00746
       O     0.56167  -17.68140    3.07888
      H1     1.17905  -17.01529    2.79564
       H     1.49858  -13.25520    8.31116
       O     1.97968  -12.47371    8.67142
      H1     2.00305  -11.77405    7.92515
       H    -6.31128  -16.62170    6.14465
       O    -6.41770  -17.41286    5.70191
      H1    -6.46345  -17.21427    4.72394
       H    -9.24697  -18.28329    2.67952
       O    -8.48769  -18.93020    2.62308
      H1    -8.50121  -19.32759    3.46667
       H    -5.89379  -19.48070   13.89248
       O    -5.99444  -18.84249   13.20738
      H1    -6.78849  -19.17632   12.73786
       H    -9.92172  -14.69619    6.77901
       O    -9.79409  -15.58234    7.12835
      H1   -10.34003  -15.74081    7.92699
       H    -0.38788  -13.34637    4.94463
       O     0.34803  -12.79518    5.26313
      H1     1.09871  -13.00671    4.74415
       H   -12.47953  -19.04083    6.82289
       O   -11.84115  -18.32507    6.90110
      H1   -11.80079  -17.80699    6.02900
       H    -1.61809  -16.21111    9.24229
       O    -1.56845  -15.26154    9.17141
      H1    -2.07670  -14.87915    8.50240
       H    -3.75077  -16.17200   11.36274
       O    -3.49700  -15.66474   12.10340
      H1    -2.96554  -16.17318   12.67941
       H     3.79091  -17.41340    8.31008
       O     3.53427  -17.40571    9.24707
      H1     4.02716  -18.15368    9.64900
       H    -0.86631  -18.21440    8.98223
       O    -1.38223  -18.02355    9.77557
      H1    -0.92041  -18.20925   10.52878
       H    -8.55549  -15.74897   15.68038
       O    -8.94072  -16.10006   14.88960
      H1    -8.21534  -16.00233   14.26247
       H    -3.55691  -12.26681    9.35016
       O    -4.06498  -12.92577    9.81374
      H1    -3.43571  -13.61272    9.99710
       H    -6.95438  -17.69129    2.74733
       O    -6.13463  -17.21511    2.71518
      H1    -6.24989  -16.76217    1.81575
       H    -8.37511  -15.94275   10.46797
       O    -8.16578  -16.80549   10.17546
      H1    -8.58294  -16.98380    9.35085
       H    -2.47283  -17.20858    4.05875
       O    -2.64397  -17.90209    4.74369
      H1    -1.99606  -17.78341    5.42918
       H    -5.67740  -18.89821   15.73360
       O    -5.37678  -19.76000   16.07086
      H1    -4.42093  -19.84414   15.84409
       H    -3.95911  -19.09958    8.90014
       O    -3.92397  -18.77761    9.83204
      H1    -2.97261  -18.60933    9.89400
       H    -4.83004  -12.00229   11.46974
       O    -5.15476  -11.26731   12.04846
      H1    -4.83043  -11.58864   12.85657
       H     4.21172  -18.56075    5.50998
       O     3.58302  -18.49905    6.20550
      H1     2.87851  -17.85853    5.88231
       H    -3.47754  -13.71401    7.26034
       O    -3.02070  -14.49486    6.94657
      H1    -3.69715  -15.14429    6.88625
       H    -6.83657  -13.97123    2.69648
       O    -6.11427  -14.30280    3.16592
      H1    -6.10484  -15.24404    2.94736
       H     2.80163  -16.80745   12.18853
       O     2.91315  -16.14311   12.86750
      H1     3.70257  -15.66173   12.54042
       H    -8.76008  -19.21291    7.40697
       O    -8.10146  -18.49005    7.61602
      H1    -7.78105  -18.22604    6.74175
       H    -0.25665  -12.80535   12.44858
       O    -1.20386  -12.72965   12.57329
      H1    -1.46037  -13.37224   11.91427
       H    -1.80874  -16.01176    1.75113
       O    -1.85627  -16.10592    2.74817
      H1    -2.05714  -15.23412    3.09555
       H    -0.41137  -19.83085   12.67598
       O    -0.85149  -19.03826   12.33153
      H1    -1.10466  -18.45612   13.03685
       H     0.13568  -14.73050    7.96649
       O     0.82633  -14.56511    7.32047
      H1     0.51280  -13.93039    6.70134
       H    -3.46420  -18.90785    0.38012
       O    -4.41018  -18.92878    0.48547
      H1    -4.60706  -18.40399    1.25017
       H    -8.96779  -13.83199   11.61463
       O    -8.36623  -14.62234   11.54371
      H1    -7.99523  -14.83938   12.39830
       H    -0.00328  -18.03782    6.40070
       O    -0.77340  -18.45688    6.84340
      H1    -0.57186  -19.38157    6.83832
       H    -7.07004  -19.96819   10.72230
       O    -7.80341  -19.42590   11.13068
      H1    -7.90369  -18.55127   10.60555
       H    -7.64201  -15.48001    7.47270
       O    -6.66723  -15.19662    7.49860
      H1    -6.36308  -15.63433    8.30495
       H     1.06584  -16.11947    5.94054
       O     1.17936  -17.07594    5.77063
      H1     1.01842  -17.21231    4.79854
       H    -2.61910  -13.39773    3.75379
       O    -2.02592  -13.68359    4.47547
      H1    -2.62865  -13.91219    5.26579
       H    -4.44059  -12.09624    5.75821
       O    -5.35204  -12.21918    5.46932
      H1    -5.28066  -12.29143    4.53695
       H   -10.23074  -16.37879   10.40737
       O   -10.91581  -16.08384    9.79795
      H1   -11.52761  -16.81707    9.57521
       H    -5.40204  -15.73142   16.64263
       O    -5.65025  -16.50914   16.13589
      H1    -5.70139  -16.21328   15.23672
       H    -7.25754  -13.15437    7.57654
       O    -7.34785  -12.21597    7.35510
      H1    -6.74341  -12.11735    6.62416
       H    -3.92793  -18.85365    6.38722
       O    -4.04878  -19.55442    7.00736
      H1    -3.25369  -20.08555    6.92930
       H     1.48690  -16.91345   13.86469
       O     1.20349  -17.09861   14.77248
      H1     0.21218  -17.18615   14.75993
       H    -2.48648  -10.93435    7.10714
       O    -3.26275  -11.43405    7.42318
      H1    -3.97725  -10.84129    7.50133

