138
frame 11 | Written by MDAnalysis XYZWriter (release 2.4.3)
       H    -5.27021    3.73740   -4.23939
       O    -5.65012    2.84337   -4.32714
      H1    -6.17468    2.75808   -5.16346
       H    -5.00493   -3.49300   -5.23418
       O    -4.92809   -2.58746   -4.90477
      H1    -5.70343   -2.13353   -5.38132
       H    -4.10555    3.89722    1.47813
       O    -4.03333    4.42396    0.63560
      H1    -3.37896    3.96126    0.13688
       H    -0.58173   -0.64094   -2.46149
       O    -1.24919   -0.74897   -1.77271
      H1    -0.74985   -1.28342   -1.14078
       H    -3.99441   -1.03691   -5.64785
       O    -3.09793   -0.73569   -5.66589
      H1    -2.92997   -0.46292   -4.72596
       H    -0.62910   -4.88176   -3.03191
       O    -0.23001   -4.87883   -3.95231
      H1    -0.87773   -4.38166   -4.46780
       H     1.66136    1.49613   -5.18400
       O     1.38130    2.40201   -5.04877
      H1     0.57346    2.48863   -5.62264
       H    -3.87821   -2.18095   -1.58146
       O    -3.21843   -2.67687   -2.10163
      H1    -2.54649   -2.04505   -2.38218
       H     1.68516   -4.09227   -5.46894
       O     2.08298   -3.42157   -4.84799
      H1     1.85812   -3.83530   -3.97049
       H     0.11868   -3.66624   -8.81613
       O     0.15655   -2.69949   -9.05093
      H1    -0.54799   -2.33729   -8.52855
       H     0.69930    1.74829   -0.12803
       O     1.59885    2.04551   -0.28120
      H1     1.64447    2.58735   -1.05296
       H     0.88191   -2.01345   -5.01189
       O     0.42445   -1.23183   -5.40386
      H1     0.77101   -1.18290   -6.31576
       H    -4.09195    5.80633   -4.04593
       O    -4.65533    5.18752   -3.46154
      H1    -5.24139    5.67313   -2.88674
       H    -6.72301    2.16102   -7.20153
       O    -7.13773    2.02047   -6.33611
      H1    -6.91399    1.10807   -6.01839
       H     3.49516   -0.55654   -4.29937
       O     2.88407   -0.15135   -4.99008
      H1     2.05246   -0.62271   -4.90650
       H    -5.77257    0.14764  -10.45889
       O    -6.01784   -0.76718  -10.43874
      H1    -6.95237   -0.73350  -10.20568
       H    -1.19277    2.26921   -8.22508
       O    -1.11093    1.74591   -9.00408
      H1    -1.60315    0.91424   -8.74291
       H    -6.21196    3.54237   -8.65248
       O    -5.44795    2.96764   -8.32536
      H1    -4.81308    3.60726   -7.93664
       H     2.25507    4.49764   -2.35770
       O     1.56815    3.76754   -2.37249
      H1     1.59598    3.43998   -3.28057
       H    -1.63728   -2.38288   -5.34979
       O    -2.05255   -3.29183   -5.25088
      H1    -3.01079   -3.16916   -5.26777
       H    -2.88968    2.17793   -3.07611
       O    -3.04702    1.85872   -3.95448
      H1    -3.96469    2.01571   -4.21790
       H    -3.62139    3.44632   -1.29332
       O    -2.65024    3.31488   -1.31748
      H1    -2.13270    4.05669   -1.61619
       H    -5.40392    0.19085   -0.52682
       O    -5.32970   -0.70541   -0.96439
      H1    -6.22576   -1.08982   -0.90960
       H    -8.61690    4.36371   -4.17137
       O    -8.04826    4.38828   -3.42095
      H1    -7.25451    3.93097   -3.69224
       H     0.80702    1.49838   -9.67247
       O     1.56456    1.10446  -10.13793
      H1     2.27290    1.76777  -10.22016
       H    -5.68462   -4.32071   -8.77141
       O    -5.91347   -5.29161   -8.60847
      H1    -5.41095   -5.54960   -7.83638
       H    -2.45123   -4.52721    0.02656
       O    -3.06264   -4.27635    0.70611
      H1    -3.23282   -3.32174    0.59004
       H    -7.69587   -0.54172   -5.20840
       O    -6.75278   -0.54687   -5.14480
      H1    -6.53674   -0.51056   -4.21072
       H    -1.96509    2.55119  -10.36777
       O    -2.41732    2.99053  -11.08713
      H1    -3.27349    2.54683  -11.10923
       H    -2.12639   -0.91154   -7.37143
       O    -1.88966   -0.95955   -8.33346
      H1    -2.59661   -1.45906   -8.77742
       H    -8.04402   -2.42875   -1.43993
       O    -7.89941   -1.69263   -0.88502
      H1    -7.97367   -1.90505    0.02701
       H    -8.54440   -3.16960   -7.16321
       O    -9.12547   -2.44301   -7.41875
      H1    -8.74328   -2.08970   -8.25817
       H    -4.98988   -5.55569   -5.21042
       O    -4.61298   -5.87466   -6.04470
      H1    -4.27169   -6.76603   -5.84613
       H    -0.38479   -4.35003   -0.65636
       O    -0.98592   -4.60664   -1.38829
      H1    -1.22656   -3.77843   -1.73918
       H    -4.73289   -1.58859   -9.60196
       O    -3.95848   -2.09147   -9.25947
      H1    -3.78572   -2.72884   -9.92815
       H    -1.88255   -1.58375    1.66660
       O    -0.99153   -1.52468    1.28342
      H1    -0.70336   -2.45890    1.17708
       H     1.47336   -6.12776   -6.73907
       O     0.99344   -5.31558   -6.62657
      H1     0.44835   -5.44656   -5.86358
       H    -0.76562    6.22409   -6.92872
       O    -1.19837    5.33649   -6.98285
      H1    -1.62764    5.28001   -7.85164
       H    -4.38600   -1.13484    2.06582
       O    -3.80597   -1.38042    1.33964
      H1    -4.18814   -0.89017    0.54368
       H    -5.37470    2.31968   -9.88825
       O    -5.29405    2.00313  -10.77584
      H1    -5.88405    2.42896  -11.41476
       H    -9.74933    0.55209   -7.42101
       O    -8.91402    0.65727   -7.88345
      H1    -8.35325    1.27168   -7.33552
       H    -1.30075    0.57891   -0.45016
       O    -1.16327    1.40975    0.08383
      H1    -1.75032    2.14466   -0.21304
       H    -5.76546    2.56898   -2.28828
       O    -5.52096    2.23898   -1.37277
      H1    -5.99337    2.85443   -0.84404
       H    -1.69014    2.59574   -5.28697
       O    -1.17036    2.80382   -6.07618
      H1    -1.13901    3.80404   -6.04556
       H     1.50181   -0.18227   -9.03681
       O     1.64523   -0.76499   -8.28619
      H1     1.23957   -1.58357   -8.48600
       H    -6.00452   -4.80947   -2.48662
       O    -5.13530   -5.09201   -2.80070
      H1    -4.48699   -4.35356   -2.65083

