138
frame 6 | Written by MDAnalysis XYZWriter (release 2.4.3)
       H   -16.03205   -6.31646   10.17690
       O   -16.66696   -6.76751    9.59317
      H1   -17.35489   -6.11072    9.44010
       H   -14.31149  -12.07863   10.11129
       O   -14.13444  -12.53047    9.33502
      H1   -14.48881  -11.98846    8.61331
       H   -11.37299  -13.86530   13.20389
       O   -11.74543  -14.44415   12.55842
      H1   -12.69126  -14.32402   12.51386
       H   -18.04428   -9.92236   11.50055
       O   -17.84408  -10.85267   11.42797
      H1   -18.33722  -11.32259   12.12830
       H   -13.43300  -10.73377   15.19006
       O   -12.91624  -11.39216   15.72401
      H1   -12.32389  -10.92608   16.34185
       H   -17.79495  -19.72306    6.61318
       O   -18.52580  -19.09332    6.90372
      H1   -18.59637  -19.29935    7.86336
       H   -13.46737   -8.10664    8.62626
       O   -14.01490   -8.67570    9.17210
      H1   -14.84212   -8.24797    9.27349
       H   -17.65586  -13.05315    2.79960
       O   -18.07995  -12.21960    2.39394
      H1   -17.50023  -11.43368    2.54676
       H   -15.12542  -18.84549   11.10808
       O   -14.98830  -18.38021   11.91673
      H1   -14.08277  -18.04242   11.80846
       H   -18.13157   -7.80643   10.44114
       O   -18.64684   -8.02478   11.20894
      H1   -19.57884   -7.86764   11.05872
       H   -15.00154  -12.42243   15.86961
       O   -15.89061  -12.54115   16.17544
      H1   -16.22117  -13.33991   15.70640
       H   -18.08159  -15.77074    6.36251
       O   -18.72214  -15.04666    6.62857
      H1   -19.52212  -15.12914    6.05795
       H   -11.18911  -10.54105   10.74441
       O   -10.22242  -10.82516   10.85006
      H1   -10.22630  -11.76721   10.73736
       H   -18.56717  -10.29336   14.81908
       O   -17.97424  -10.11668   15.60103
      H1   -17.11861   -9.81951   15.19332
       H   -16.96800   -9.16675    8.33496
       O   -17.01830   -9.35461    7.38892
      H1   -17.88164   -9.58070    7.13201
       H   -17.64986  -14.99518    4.03656
       O   -17.20895  -14.57491    3.23722
      H1   -16.61738  -13.99056    3.68217
       H   -19.25781  -14.97876   11.75871
       O   -18.85590  -14.91202   12.65493
      H1   -19.48627  -14.35563   13.11667
       H   -17.50570   -6.47896   14.42303
       O   -17.95279   -6.27177   13.55197
      H1   -17.74283   -7.01723   12.93870
       H   -16.30075  -17.49562    4.06124
       O   -15.63780  -17.69134    3.38320
      H1   -15.06656  -18.32913    3.73712
       H   -15.28119  -13.98292    9.18823
       O   -15.96993  -14.69908    9.17522
      H1   -15.95632  -15.19795   10.00511
       H   -15.35471  -12.48848   12.53143
       O   -15.25570  -11.71464   12.01153
      H1   -16.06794  -11.51324   11.49556
       H   -12.18853  -17.19125   10.70247
       O   -12.50196  -17.20233   11.62623
      H1   -12.16304  -16.39691   12.06851
       H   -18.04590  -13.46979    6.58033
       O   -17.60753  -12.56594    6.43361
      H1   -17.59036  -12.22580    7.29678
       H   -12.44921  -11.81468    4.14146
       O   -12.26659  -12.02697    3.23100
      H1   -11.39380  -12.50512    3.23661
       H   -17.22262   -9.16645    3.53155
       O   -17.26449   -9.63378    2.69345
      H1   -16.56857   -9.26053    2.13092
       H   -14.89892  -14.71723   13.23754
       O   -14.37989  -14.03254   13.66047
      H1   -14.68424  -14.14357   14.55931
       H   -12.03495  -11.92681    6.32721
       O   -12.18620  -11.09190    5.84163
      H1   -11.28165  -10.66811    5.89859
       H   -13.37835  -18.52579    7.63576
       O   -13.98363  -17.92633    8.11808
      H1   -14.66224  -18.53143    8.49668
       H   -13.27985   -8.46514   12.38367
       O   -13.82073   -7.90883   12.89996
      H1   -13.21181   -7.17625   13.09680
       H   -13.29852  -10.38155   11.71735
       O   -12.67924   -9.89140   11.12471
      H1   -13.08764   -9.63110   10.27639
       H   -10.20334  -14.39114    9.71733
       O   -10.36969  -13.56248   10.22479
      H1   -10.80404  -13.89329   11.02446
       H   -15.02885  -11.59642    4.14235
       O   -15.30747  -12.33441    4.68735
      H1   -15.63037  -11.95130    5.55064
       H   -17.40715  -13.22724    9.28753
       O   -17.98630  -12.48765    9.11647
      H1   -17.98658  -11.90234    9.87803
       H   -14.56343  -16.58198    7.32955
       O   -15.06958  -15.83921    6.94292
      H1   -15.58720  -15.53131    7.72689
       H   -17.76638  -17.49805    6.16831
       O   -17.22997  -16.83483    5.69982
      H1   -16.37038  -16.69463    6.05129
       H   -11.98311  -13.13978    8.18738
       O   -11.47447  -13.27492    7.35362
      H1   -12.10062  -13.62544    6.72617
       H   -18.59345  -17.04018   13.44722
       O   -19.29873  -17.71534   13.40508
      H1   -18.97871  -18.38118   14.03095
       H   -15.44077  -10.46241    7.11950
       O   -14.82409  -11.21594    7.06284
      H1   -13.99548  -10.82560    6.68633
       H   -14.06554  -13.43091    5.35829
       O   -13.46054  -14.13845    5.65825
      H1   -14.10050  -14.67179    6.20907
       H   -18.42206  -13.26528   16.68522
       O   -19.15045  -12.76829   16.28405
      H1   -18.66192  -11.97736   16.13902
       H   -14.08900  -15.80480    3.05664
       O   -13.21387  -15.39021    3.26902
      H1   -13.42055  -14.95013    4.09400
       H   -15.96881   -6.33749    5.20122
       O   -16.74866   -6.59419    4.66484
      H1   -16.43777   -6.75706    3.75294
       H   -18.55853   -6.75632    5.74419
       O   -19.46935   -6.55559    5.58651
      H1   -19.57290   -6.38039    4.64237
       H   -17.10320  -15.73404   12.10629
       O   -16.10013  -15.84481   12.13517
      H1   -15.91394  -16.81085   12.04146
       H   -17.62950  -14.51687   14.17605
       O   -17.02699  -14.68272   14.93282
      H1   -16.76826  -15.58377   14.81191
       H   -15.54870  -10.22931   13.46699
       O   -15.27975   -9.79065   14.27320
      H1   -14.93604   -9.00490   13.83305

