138
frame 10 | Written by MDAnalysis XYZWriter (release 2.4.3)
       H    14.18376    1.27035  -15.03557
       O    14.43617    0.93508  -15.88611
      H1    15.33229    0.49828  -15.74186
       H    11.74050    5.98078   -7.45436
       O    11.18887    5.34977   -7.00350
      H1    11.63156    5.31349   -6.13353
       H    12.12228   -0.86576  -10.71685
       O    11.33635   -0.33865  -10.32214
      H1    11.30878    0.51548  -10.83911
       H    12.03527    0.21950   -6.03315
       O    12.19443   -0.41818   -6.80552
      H1    11.55905   -0.15208   -7.50136
       H    14.60335    2.93136   -5.62417
       O    14.00963    3.06934   -4.84869
      H1    13.69448    3.93739   -4.88897
       H    12.77489    3.52809  -12.04967
       O    13.20467    4.33458  -12.30497
      H1    14.15024    3.96841  -12.36755
       H    17.37548    5.97297   -6.13401
       O    17.00408    5.80556   -5.26712
      H1    17.54625    5.09014   -4.90407
       H     9.46652    1.44020   -7.81757
       O     9.14213    0.65521   -8.34333
      H1     8.63432    1.05495   -9.07800
       H    15.69558   -1.46994   -3.80767
       O    15.94405   -0.79305   -3.11032
      H1    15.13495   -0.64684   -2.63588
       H    11.53086   -4.36769  -10.02280
       O    11.50383   -4.73703  -10.91300
      H1    11.13881   -3.96759  -11.39119
       H    10.77591   -2.85097  -13.21330
       O    11.68472   -3.12382  -13.26096
      H1    12.09850   -2.31071  -13.56880
       H    13.89579   -2.59734  -11.61918
       O    13.46924   -2.25598  -10.79461
      H1    12.90099   -2.93553  -10.34514
       H    12.81136   -0.05435   -2.00454
       O    11.89819    0.05035   -2.38054
      H1    11.61377   -0.85275   -2.54605
       H    17.35694   -2.65265  -12.45307
       O    17.21513   -3.06826  -11.58150
      H1    16.72873   -2.41407  -11.09189
       H    19.65608    0.75466   -9.01842
       O    19.59373    1.68271   -8.77676
      H1    18.88909    2.02828   -9.31018
       H     8.49471    2.29167  -11.58441
       O     9.03308    2.47214  -12.37353
      H1     8.73936    3.40145  -12.63496
       H    15.79612    3.58813   -2.29008
       O    14.82726    3.53135   -2.38724
      H1    14.62787    3.25456   -3.30186
       H    16.22318   -1.78802   -9.23966
       O    16.00064   -1.13890   -9.94729
      H1    15.13805   -1.47100  -10.20016
       H    12.53742    1.96308   -4.80022
       O    11.68712    1.47887   -4.84164
      H1    11.63456    0.90377   -4.06955
       H     7.40809    2.50470   -7.50856
       O     7.18314    3.24292   -8.09464
      H1     7.82858    3.93653   -7.87320
       H     6.86509    0.88307  -10.26152
       O     7.49113    1.62111  -10.33363
      H1     7.22248    2.24930   -9.66245
       H    12.54615    5.22653   -3.64913
       O    12.65737    5.50089   -4.57234
      H1    13.28715    6.24141   -4.43938
       H    17.76098    2.70137   -3.94874
       O    18.16863    3.59425   -3.84378
      H1    18.84897    3.56168   -4.56157
       H    13.17790    2.41558  -13.67825
       O    13.28014    1.53162  -13.36864
      H1    13.93337    1.58928  -12.65602
       H     8.13190    6.37101   -6.33438
       O     8.53311    5.71870   -6.91346
      H1     9.51585    5.67994   -6.76491
       H    13.41512   -5.76972   -8.35055
       O    14.23864   -5.39867   -8.77577
      H1    14.25750   -4.42554   -8.66416
       H    12.32102   -3.54149   -6.08394
       O    12.89576   -3.02655   -6.64383
      H1    12.65191   -2.06514   -6.55585
       H     9.45684   -1.11897  -12.86830
       O     9.17304   -0.29496  -13.35695
      H1     9.38483    0.43966  -12.76889
       H    18.62057    3.60334  -11.14850
       O    18.18521    2.74552  -11.04706
      H1    17.33640    2.81141  -11.52405
       H    10.38033   -1.59082  -11.08413
       O     9.74577   -2.24709  -11.45644
      H1     8.90573   -2.20294  -10.94321
       H     9.08233   -1.20390   -8.31893
       O     8.82218   -2.03037   -7.83414
      H1     8.80257   -1.75014   -6.90328
       H    17.52211    5.82956   -8.13695
       O    18.30095    5.82928   -7.61472
      H1    18.78563    6.53581   -7.95496
       H    11.99453   -3.40833   -8.00640
       O    11.37007   -3.45726   -8.73118
      H1    10.58253   -3.00719   -8.44396
       H    10.64175    2.10354   -6.13100
       O    10.00785    2.55238   -6.72302
      H1    10.42085    3.35178   -6.99652
       H    18.53444    0.95219   -4.24734
       O    17.64431    1.02588   -4.50084
      H1    17.16564    0.39304   -3.92486
       H    14.70390   -2.69815   -5.61392
       O    15.55005   -2.71727   -5.10313
      H1    15.76881   -3.61194   -4.86342
       H    15.36769    2.44164   -7.91764
       O    15.83035    2.91823   -7.17491
      H1    16.73289    2.53537   -7.08420
       H    15.22544    4.79729   -8.08437
       O    15.23838    5.53327   -8.68660
      H1    14.42611    5.44014   -9.18502
       H    15.53553    1.07282  -11.25160
       O    15.19543    1.96919  -11.34515
      H1    14.50795    1.90600  -10.67041
       H    14.29361   -1.96971  -14.47474
       O    13.53434   -1.43341  -14.01294
      H1    13.56616   -0.53617  -14.37405
       H    11.97457    1.98469  -12.16795
       O    11.51598    2.32450  -11.36411
      H1    10.59793    2.55056  -11.66110
       H    13.51956    1.22712   -8.44477
       O    13.66302    2.09372   -8.87514
      H1    12.85818    2.42518   -9.27550
       H    13.30653    7.01662   -9.95468
       O    12.85817    6.19287   -9.89632
      H1    12.97884    5.70431  -10.72064
       H     9.25231    3.28665   -5.09353
       O     9.08857    3.59486   -4.19005
      H1     8.16191    3.29208   -4.14298
       H    16.65067   -2.91587   -6.37156
       O    17.19085   -3.12768   -7.17547
      H1    17.10572   -4.09473   -7.31206
       H    15.73658    5.45234  -12.88316
       O    15.96526    4.49007  -12.91561
      H1    16.57435    4.41170  -13.61763

