138
frame 3 | Written by MDAnalysis XYZWriter (release 2.4.3)
       H    12.90440    9.18337    2.14407
       O    13.07483    8.21937    2.08346
      H1    13.28888    8.09590    1.13956
       H     9.39542   14.97993    8.61427
       O     8.54223   14.60764    8.48960
      H1     8.71878   13.88537    7.90663
       H     6.59567   10.57569    3.44639
       O     7.19802   10.44442    2.63901
      H1     6.71746    9.77347    2.06343
       H     9.68320    9.39106   13.02465
       O    10.22969    9.44479   12.23120
      H1    10.27345    8.58105   11.84701
       H    12.83717   11.70604    8.06588
       O    11.91712   11.90790    8.36455
      H1    12.07499   12.47966    9.14885
       H     9.42300    7.66285    4.20913
       O     9.16281    6.89186    4.72410
      H1     9.72209    6.12726    4.45016
       H    14.77563   10.05976    9.16773
       O    15.02203    9.47118    9.97154
      H1    14.79425    8.57985    9.61190
       H    14.06171   10.24945   11.80302
       O    13.36928   10.60867   12.35959
      H1    12.59462   10.06162   12.39285
       H    12.29815   16.92528    2.58963
       O    12.05632   16.02676    2.82270
      H1    12.02425   15.98579    3.81269
       H    10.49032   16.67166    9.91702
       O    10.93666   16.19079    9.10885
      H1    11.88090   16.46011    9.31785
       H    11.63930    7.79919    7.15809
       O    11.49387    8.39016    6.35577
      H1    10.51202    8.33670    6.28801
       H    16.18704    9.42091    4.21857
       O    15.73873    9.76749    4.98108
      H1    15.71831    9.05804    5.67092
       H    16.58495   11.12483    5.28682
       O    16.96711   12.03084    5.38230
      H1    17.92282   11.90562    5.33646
       H    15.53572    6.99979    7.01608
       O    15.21605    7.33195    6.18257
      H1    14.31573    7.03511    6.02157
       H     8.57293    7.48413    6.60379
       O     8.68408    7.73540    7.51547
      H1     8.12371    8.51757    7.56580
       H     9.67854   10.32899    5.33871
       O     9.35818    9.83628    4.59098
      H1     8.64166   10.37960    4.20864
       H     9.70520   13.29012   13.61740
       O     8.79133   13.23408   13.17410
      H1     8.03366   13.03988   13.72289
       H     9.75713   14.53199    5.39127
       O    10.18258   13.68136    5.44418
      H1    11.15257   13.86016    5.47929
       H     7.79936   18.04627    7.84814
       O     8.42188   17.30949    7.73898
      H1     8.01724   16.56164    8.20391
       H     7.42637    6.52920    7.64262
       O     6.76010    5.85227    7.49519
      H1     5.91739    6.31522    7.70834
       H    17.10650   12.05665    8.70787
       O    16.70947   12.63305    8.06207
      H1    17.16622   12.66121    7.24104
       H    13.17595    7.30578    3.83094
       O    13.08153    6.63661    4.54127
      H1    12.19658    6.85266    4.80840
       H    13.58541   14.65339    6.08989
       O    12.62558   14.70710    6.07116
      H1    12.48235   14.17169    6.83665
       H     8.79985   16.44851    6.01600
       O     9.19708   16.12640    5.20497
      H1     8.43109   16.22868    4.57115
       H    11.44836    6.05793   11.84434
       O    10.94394    6.66992   11.25504
      H1     9.99103    6.46578   11.36461
       H     5.90749   13.67499    3.40807
       O     6.79558   13.86716    3.84121
      H1     6.67577   13.58227    4.73399
       H     6.56924   12.02544   11.02540
       O     7.11608   11.46903   10.40411
      H1     8.02079   11.63988   10.48118
       H    15.17831   11.63796    7.50171
       O    14.52657   10.94113    7.72033
      H1    13.97243   10.80206    6.92159
       H     5.01022   11.34616    3.77331
       O     5.21479   10.60921    4.34461
      H1     4.76590    9.85772    3.89506
       H     9.43347   12.47453   11.76559
       O     9.89075   12.02346   10.96273
      H1    10.15662   11.19770   11.33119
       H    12.54385    9.73753    5.57778
       O    13.09124   10.49694    5.32040
      H1    13.97481   10.11881    5.14919
       H     5.02891   11.03667    5.96275
       O     4.99253   11.28027    6.90998
      H1     5.83468   10.85315    7.27737
       H    11.38312    7.04728    9.48361
       O    11.79778    6.77895    8.63544
      H1    11.49209    5.86062    8.45779
       H    10.53394   11.09742    7.49205
       O     9.75732   11.22183    6.89619
      H1     9.78749   12.14380    6.58292
       H     7.94106   10.76319    7.74320
       O     7.14559   10.25318    7.97699
      H1     6.99743   10.53560    8.87545
       H     6.57412   14.66537    9.26031
       O     5.75852   14.87538    9.75726
      H1     5.13629   15.00535    9.02996
       H     6.25344   12.65600    6.79562
       O     6.64445   13.42251    6.45924
      H1     5.95309   14.09483    6.57863
       H    11.55611   14.68538    9.88664
       O    11.70672   13.93606   10.49474
      H1    10.93886   13.35599   10.45111
       H    17.99733   10.40101    9.91664
       O    17.27626   11.04705   10.19044
      H1    16.48497   10.50623   10.05639
       H    15.88118   15.12431    5.58216
       O    15.43075   14.56907    6.25957
      H1    15.80955   13.70783    6.16155
       H     5.57408    9.43886   12.66187
       O     6.09028    9.04107   11.94434
      H1     6.44021    9.78247   11.39905
       H    12.51801   13.56645   12.08921
       O    12.90995   13.52993   12.96711
      H1    13.15115   12.57371   12.93150
       H    13.82764    6.24787    8.76560
       O    14.73354    6.23177    9.07497
      H1    14.69465    6.23419   10.02838
       H    12.33147   10.72585    3.65092
       O    11.83845   10.77146    2.81179
      H1    10.95474   10.61212    3.18415
       H    12.84667   13.19331    1.45247
       O    11.99674   13.06808    0.94235
      H1    11.77398   12.14742    1.21843
       H     9.45807   13.29014    3.64221
       O     9.48752   13.36654    2.72175
      H1    10.44472   13.21410    2.52521

