138
frame 7 | Written by MDAnalysis XYZWriter (release 2.4.3)
       H   -15.94910    5.09026    7.29316
       O   -15.43638    4.25701    7.28214
      H1   -14.55163    4.59894    7.45894
       H   -16.35203    1.05594    6.04378
       O   -15.97314    0.64840    5.22757
      H1   -16.43883    1.11642    4.51049
       H   -12.42957    2.43848   13.51210
       O   -12.35625    1.55385   13.11419
      H1   -11.85929    1.06461   13.79499
       H   -16.40778    2.59515    7.34402
       O   -17.27079    2.12986    7.27946
      H1   -17.95930    2.58809    7.76780
       H    -9.14525   -5.96362    5.04421
       O    -9.18188   -5.09830    4.60528
      H1    -8.53969   -4.49969    4.98099
       H    -9.24882   -2.35873    2.39919
       O    -8.29173   -2.26374    2.66316
      H1    -8.04276   -1.31780    2.62367
       H   -14.20653    2.88877    9.66855
       O   -13.23517    3.03938    9.79072
      H1   -12.92330    2.12372   10.06868
       H    -7.49304    1.15709    6.31426
       O    -6.89630    1.89515    6.42391
      H1    -5.96738    1.57770    6.22446
       H   -16.46227   -2.67350   12.53318
       O   -16.25734   -2.18251   11.71400
      H1   -17.09536   -1.70231   11.58353
       H   -10.35527    4.89942    7.36800
       O   -10.32947    3.97244    7.62429
      H1    -9.42471    3.96953    8.07857
       H   -16.18661    5.47040    4.49407
       O   -16.25377    4.53112    4.30145
      H1   -16.17736    4.08499    5.17634
       H   -11.30988   -4.78882    2.72315
       O   -11.35905   -4.25810    3.55755
      H1   -10.54170   -4.47061    4.06382
       H    -9.81566   -4.60744    8.98532
       O    -9.29945   -4.60762    8.16189
      H1    -9.27673   -5.53034    7.88623
       H    -9.73509    0.75791    3.42031
       O    -9.66520    1.37502    2.64670
      H1    -9.04176    1.07215    1.97232
       H   -13.20619   -1.18067    2.41971
       O   -12.86968   -1.63947    1.63273
      H1   -13.60674   -1.92560    1.04887
       H   -14.26562   -5.25920   11.47929
       O   -14.50502   -4.58530   10.85918
      H1   -13.75957   -4.56600   10.27736
       H   -15.25414    1.05235   12.38829
       O   -15.63195    1.82857   11.94563
      H1   -15.93133    1.49239   11.02000
       H   -10.75474   -1.02852    4.40163
       O    -9.95617   -0.52812    4.54171
      H1   -10.17210   -0.08539    5.35984
       H    -8.34582    2.86997    9.99572
       O    -8.82808    2.43659   10.69665
      H1    -9.62741    2.90951   10.79751
       H   -17.20288    0.95937    8.84209
       O   -16.80255    0.67285    9.69321
      H1   -16.21772   -0.13748    9.56964
       H   -14.11421   -1.74673    4.49188
       O   -13.77549   -0.87427    4.17931
      H1   -14.45914   -0.18582    4.42865
       H    -7.32557   -3.40990    8.64172
       O    -7.45321   -2.71103    9.35022
      H1    -6.52282   -2.44240    9.48610
       H   -10.58169   -3.73606    7.16159
       O   -11.03709   -3.04641    6.67925
      H1   -10.30436   -2.46187    6.39508
       H   -12.56650    0.22467   11.31522
       O   -12.24682   -0.09805   10.49305
      H1   -12.97849   -0.56176   10.05921
       H   -15.20912   -3.85757    3.62804
       O   -15.84437   -3.53761    2.93303
      H1   -16.00835   -4.31692    2.42777
       H    -8.23007   -2.46878    5.78067
       O    -7.56990   -2.83934    5.16625
      H1    -7.76403   -2.67957    4.19565
       H   -12.97631   -3.57388    4.25798
       O   -13.78808   -3.47054    4.76637
      H1   -13.76485   -4.09975    5.48601
       H    -9.95534    2.56860    6.47551
       O    -9.98351    1.59382    6.31229
      H1   -10.89292    1.39114    6.37785
       H   -12.14556   -0.56054    7.06444
       O   -12.39116    0.00108    6.30567
      H1   -12.99122   -0.41705    5.61809
       H   -12.07816   -5.93241    5.12330
       O   -11.92488   -6.88431    5.08827
      H1   -12.52049   -7.33103    4.54235
       H   -14.88370   -1.93825    8.65617
       O   -14.81988   -1.34470    9.41052
      H1   -15.06954   -1.88313   10.12889
       H   -11.97993    4.05148   11.02314
       O   -11.17189    3.80494   11.51580
      H1   -11.52617    3.75344   12.42477
       H   -10.38358   -3.82607    0.99891
       O   -10.41479   -2.88221    0.99440
      H1   -11.32621   -2.68892    1.23543
       H   -11.66134   -3.62918   13.24141
       O   -10.90131   -3.03237   13.25052
      H1   -10.82790   -2.57858   12.41157
       H   -16.58706   -1.12522    5.66908
       O   -17.00825   -1.84907    6.16171
      H1   -17.50793   -2.38499    5.52825
       H   -13.74118    4.82370    4.84628
       O   -13.20250    5.49507    5.34706
      H1   -13.08407    5.06558    6.15881
       H   -12.43638    0.17771    1.46474
       O   -12.56975    1.13312    1.59736
      H1   -11.71524    1.40145    2.01197
       H    -8.92380   -0.04669    7.51245
       O    -8.45910   -0.81696    7.12771
      H1    -7.93526   -1.26025    7.83953
       H    -9.63068    4.53373    2.91262
       O   -10.25602    4.10105    2.35465
      H1   -10.02916    3.16335    2.51944
       H    -9.33604   -2.54077   10.12354
       O   -10.23855   -2.29787   10.44994
      H1   -10.32123   -1.31763   10.31279
       H   -10.86272    0.29345    9.37010
       O   -10.05476    0.59865    8.93409
      H1    -9.59910    1.31507    9.46232
       H    -6.64047    1.58021    8.24525
       O    -6.18817    1.09578    8.99739
      H1    -6.80311    0.98324    9.74842
       H   -13.46509   -5.88707    7.28520
       O   -14.05311   -5.50261    6.63563
      H1   -14.63585   -4.84555    7.12001
       H   -15.86326   -2.95808    7.15516
       O   -15.52835   -3.47900    7.86920
      H1   -16.25571   -3.74295    8.41691
       H   -12.52268    5.90863    8.75945
       O   -12.98383    5.27845    8.14273
      H1   -12.64977    4.44504    8.54770
       H   -11.61785   -3.36949    9.72197
       O   -12.12917   -4.08662    9.26259
      H1   -12.09608   -3.89021    8.32930

