138
frame 1 | Written by MDAnalysis XYZWriter (release 2.4.3)
       H     8.73121   17.56215   11.93395
       O     8.12420   17.40256   11.14814
      H1     7.67911   16.59834   11.40885
       H    13.65401   18.35606   11.81067
       O    14.35705   17.74920   11.60284
      H1    13.95382   17.05198   11.02360
       H    12.37667   19.76772   14.76074
       O    12.63913   18.84716   14.71347
      H1    13.50429   18.70795   15.15087
       H     8.43372   12.38902    8.87169
       O     9.18523   12.92556    8.58176
      H1     9.44929   12.56066    7.74384
       H    18.32278   18.25267   12.45178
       O    19.00020   17.77194   12.98376
      H1    19.66249   18.43013   13.22475
       H    20.20896   16.28045    9.52866
       O    19.24940   16.46794    9.55776
      H1    18.88300   16.22325    8.70098
       H    19.55018   16.64350   16.57360
       O    19.79854   16.18890   15.77221
      H1    19.28045   15.33063   15.94079
       H    13.42956   11.10468    8.26544
       O    12.54579   10.81777    8.60760
      H1    12.27748   11.59140    9.16627
       H    14.41886   20.05537   19.66662
       O    13.80466   19.32262   19.40165
      H1    13.92309   19.27021   18.41299
       H    13.51533   15.57764    7.30038
       O    13.52034   14.87002    7.97416
      H1    14.50778   14.75443    8.13801
       H     6.42906   15.21030   12.52480
       O     7.29938   15.39718   12.88113
      H1     7.48691   14.54027   13.25728
       H    14.68205    9.62748   11.46869
       O    14.47331   10.13094   12.23984
      H1    13.51737   10.00233   12.37712
       H    14.03399   16.29894    3.05495
       O    13.76849   15.49196    3.42747
      H1    13.50107   15.72075    4.35564
       H     9.62068   16.93727   10.28219
       O    10.27460   16.74504    9.66753
      H1    11.11755   16.55234   10.03366
       H    19.49184   18.36492   18.42168
       O    18.90585   17.77556   17.87971
      H1    18.61054   17.07937   18.48717
       H    10.97392   18.14456    9.02155
       O    11.34732   18.96192    8.52073
      H1    10.55185   19.54176    8.33998
       H    15.66936   13.64100    9.12618
       O    16.06812   14.48028    8.77631
      H1    16.06395   15.14131    9.51698
       H    10.68360   15.33188   15.50792
       O    11.14057   14.67734   14.94518
      H1    11.32170   15.32068   14.22000
       H    14.37785   16.88213   16.07965
       O    14.77175   17.74113   15.93002
      H1    15.59066   17.53899   15.42460
       H     9.75762   13.67867   14.63892
       O     9.04606   13.08812   14.40378
      H1     8.44807   13.00690   15.18588
       H    12.54588   17.35862    5.84854
       O    13.46890   17.10622    5.95502
      H1    14.02382   17.62104    5.40768
       H    16.78353   20.45185   11.77758
       O    16.94902   19.51766   11.47443
      H1    16.17356   18.97421   11.81239
       H     9.31184   15.96391    8.42451
       O     8.60766   15.48641    7.94122
      H1     8.79070   14.53057    8.15363
       H    16.20204   18.54220    4.79754
       O    15.45563   18.21907    4.32213
      H1    15.01950   19.05948    4.02253
       H    18.03553   17.99559   14.47898
       O    17.38312   18.34128   15.09441
      H1    17.81884   18.17802   15.90961
       H    13.85771   13.71774    4.76936
       O    13.09897   13.43160    5.25314
      H1    13.40609   13.45508    6.15030
       H    18.70159   14.11304   12.34133
       O    17.78882   13.76739   12.12182
      H1    17.45960   13.53855   12.97971
       H    17.27085   10.57291   13.69088
       O    16.37036   10.66921   14.08584
      H1    15.71518   10.25200   13.50348
       H    13.56838   18.12662    9.23523
       O    14.08707   18.57782    8.57878
      H1    13.56590   18.56985    7.73882
       H    17.63922   19.03784    6.26174
       O    17.95392   18.63860    5.46380
      H1    18.85269   19.01475    5.25955
       H    18.18588   13.34691   15.98123
       O    18.04583   13.99966   16.66230
      H1    17.08013   14.16376   16.70880
       H     9.23227   12.27294   12.85442
       O     9.35695   11.66043   12.07490
      H1     9.68921   10.79209   12.34113
       H    11.78934   20.17347    4.67310
       O    11.65311   19.51268    3.98804
      H1    11.13385   18.82023    4.41027
       H    14.56462   16.04771   12.79264
       O    14.50532   15.14779   13.11584
      H1    14.85149   14.50174   12.43652
       H    10.95835   18.07640    6.92898
       O    10.85095   17.72004    6.00665
      H1    10.12691   17.10985    5.99007
       H    11.13618   13.28430    9.73861
       O    11.49567   12.81546   10.44655
      H1    10.75075   12.60747   10.99457
       H    17.12549   15.54031    7.70402
       O    17.68762   16.11201    7.17632
      H1    17.19436   16.77591    6.66847
       H    13.09267   15.16173   10.86080
       O    12.91435   15.87643   10.24594
      H1    13.19848   15.66118    9.35709
       H    14.22300   14.86542   15.01124
       O    13.63843   15.12391   15.70198
      H1    12.74137   14.83373   15.40536
       H    16.95079   14.41538    4.40167
       O    16.50204   13.75747    5.00919
      H1    17.23257   13.59968    5.67498
       H    15.10000   15.06159   17.17838
       O    15.70019   14.46298   17.64132
      H1    16.16810   14.96232   18.30358
       H    13.34423   13.01451   10.69954
       O    14.22201   13.02779   11.06971
      H1    14.39683   12.16349   11.39166
       H    11.39868   17.85996   15.74030
       O    10.55810   17.33725   15.89224
      H1     9.91767   17.86353   16.33572
       H    17.67998   16.29520   10.55276
       O    16.75633   16.27870   10.84902
      H1    16.76755   15.55690   11.51877
       H    18.96437   12.66122    8.96318
       O    19.43299   13.28279    9.55028
      H1    18.92473   13.45215   10.33507
       H    10.19411   19.01549   13.14514
       O     9.66103   18.21456   13.21806
      H1     9.95791   17.89807   14.09836

