138
frame 6 | Written by MDAnalysis XYZWriter (release 2.4.3)
       H    -4.72986   -2.13867  -11.55000
       O    -4.01671   -2.53315  -11.02966
      H1    -3.23098   -2.05355  -11.33847
       H    -4.80785   -2.83405   -7.59028
       O    -4.19454   -2.09775   -7.41211
      H1    -4.27626   -1.42420   -8.15726
       H    -0.03443    3.35376   -7.69266
       O    -0.22672    3.90865   -8.46881
      H1    -0.10154    3.20599   -9.18891
       H    -7.78002    0.58820  -14.66515
       O    -7.92553    1.30242  -15.31382
      H1    -7.32194    1.07514  -16.04143
       H    -3.50580   -2.34515  -16.77547
       O    -2.99175   -2.45736  -15.98763
      H1    -3.61022   -2.32640  -15.22450
       H     0.07709   -4.46616  -10.81129
       O    -0.07271   -3.62076  -10.37323
      H1    -0.68126   -3.79459   -9.69803
       H    -1.13329    4.17937  -14.33550
       O    -1.58459    4.87694  -13.90384
      H1    -1.69632    4.46306  -13.02426
       H    -3.51401    6.33356  -10.49524
       O    -4.39357    6.00248  -10.83354
      H1    -4.62406    6.40436  -11.65429
       H     1.54142    2.78697  -15.36475
       O     0.76495    3.24707  -14.94956
      H1     0.39058    2.65868  -14.28190
       H    -4.80485   -0.38321  -14.93280
       O    -5.47508   -1.06067  -14.86544
      H1    -5.61321   -1.27101  -13.98474
       H    -7.62672    1.66924  -11.79455
       O    -7.76908    0.72604  -12.05067
      H1    -8.70133    0.46534  -11.92049
       H     1.66839    2.40439   -9.57771
       O     0.93031    1.75278   -9.49137
      H1     0.65372    1.59207  -10.45791
       H    -7.63672    2.91488   -9.28354
       O    -6.66887    3.10580   -9.11579
      H1    -6.54505    3.76031   -8.37155
       H    -3.26410    1.51680  -18.39352
       O    -3.80421    1.30723  -19.13633
      H1    -4.10101    2.16352  -19.48110
       H     0.98394   -0.33577  -15.39588
       O     1.19090   -0.39060  -16.33362
      H1     1.83017    0.32678  -16.44071
       H    -6.83356   -2.23276  -12.21029
       O    -6.18609   -1.52791  -12.16197
      H1    -6.58259   -0.67009  -12.28225
       H    -2.72581   -5.46100  -16.04532
       O    -3.54286   -4.97420  -16.00339
      H1    -3.48043   -4.04206  -15.85942
       H     0.04761    1.00969  -12.69110
       O    -0.35707    1.88112  -12.68370
      H1    -1.31509    1.91057  -12.40155
       H    -4.11475   -0.64670  -18.80844
       O    -4.00999   -1.47555  -18.37960
      H1    -4.06855   -2.18246  -19.02643
       H     0.71633   -0.96750  -10.38010
       O     1.67695   -0.88994  -10.44589
      H1     1.77219   -0.00627  -10.05175
       H    -7.47321    0.60643  -18.08009
       O    -6.77008    0.15158  -17.58319
      H1    -6.57109   -0.60428  -18.14435
       H    -3.36936    3.27655  -11.51173
       O    -2.59808    3.82986  -11.51079
      H1    -3.09913    4.64368  -11.20080
       H    -1.34431    1.03139  -19.87672
       O    -0.86639    0.37484  -19.34687
      H1    -1.34194    0.30346  -18.53698
       H    -3.80639    0.29446  -11.68420
       O    -3.10888   -0.22770  -12.11908
      H1    -2.31280   -0.20243  -11.55717
       H    -1.54337    3.16924  -17.13430
       O    -0.62497    3.26792  -17.41437
      H1    -0.07172    3.35791  -16.64783
       H     1.55408   -0.90110  -13.02071
       O     0.69554   -0.48099  -13.36686
      H1     0.04504   -1.18364  -13.35926
       H    -3.52296    6.09608  -16.31815
       O    -3.99387    5.32487  -15.89743
      H1    -3.55140    5.31504  -14.97911
       H    -4.54549    1.30020  -10.07104
       O    -4.41661    1.89213  -10.86765
      H1    -5.32053    2.06928  -11.11453
       H    -7.22500    4.85291  -16.84581
       O    -7.41642    4.16145  -16.18281
      H1    -8.27899    3.88157  -16.34225
       H    -1.21336   -0.00176   -9.40464
       O    -1.09631   -0.62679  -10.14810
      H1    -1.31396   -1.46105   -9.77623
       H    -0.80313   -4.21209  -17.85419
       O    -0.81385   -3.29514  -18.25206
      H1    -1.27213   -2.77190  -17.61053
       H    -2.48428    0.47632  -15.10151
       O    -3.36170    0.73281  -14.68590
      H1    -3.26556    0.52788  -13.77506
       H    -3.35531    2.28028  -15.88589
       O    -3.24726    2.78223  -16.68256
      H1    -3.51705    3.66733  -16.40958
       H    -0.47485   -0.16599  -16.56988
       O    -1.41985   -0.14589  -16.61747
      H1    -1.63957   -1.00289  -16.22437
       H    -4.19323   -4.35116  -10.98727
       O    -4.16494   -5.32448  -10.88541
      H1    -4.15997   -5.48334  -11.83691
       H    -3.50037   -5.97580  -14.14857
       O    -4.19653   -6.00709  -13.43542
      H1    -4.96855   -5.54907  -13.76025
       H    -6.35655    1.91436  -18.73234
       O    -6.81099    2.37694  -19.46690
      H1    -7.62972    1.86344  -19.52013
       H    -0.62468   -2.85126  -12.08106
       O    -0.98983   -2.52060  -12.86365
      H1    -0.68160   -3.21252  -13.50623
       H    -5.58887   -0.14389   -9.22293
       O    -4.63029   -0.28878   -9.38779
      H1    -4.54706   -0.89665  -10.06730
       H    -8.05054   -2.87621  -15.73606
       O    -7.14923   -2.78862  -16.26846
      H1    -6.65361   -2.13553  -15.79233
       H    -6.47339   -4.18187  -15.18956
       O    -6.49185   -4.94478  -14.54812
      H1    -6.83579   -5.72190  -14.96086
       H    -1.90067    3.74091   -8.37124
       O    -2.87418    3.64859   -8.18721
      H1    -3.33398    3.59474   -9.03868
       H    -6.62018    3.87992  -11.07402
       O    -6.93526    3.32602  -11.84552
      H1    -7.15255    3.98308  -12.54072
       H     0.02094   -5.56355  -14.12850
       O    -0.11788   -4.62664  -14.31667
      H1     0.66939   -4.47930  -14.87987
       H    -7.61269    4.57313  -14.51830
       O    -7.80096    5.19488  -13.78578
      H1    -7.11729    5.89632  -14.04860
       H    -2.34560    0.70207   -6.87073
       O    -1.98026    0.96934   -7.70524
      H1    -2.51498    1.75402   -8.03580

