138
frame 8 | Written by MDAnalysis XYZWriter (release 2.4.3)
       H     8.47344    8.96217   11.31619
       O     8.24329    8.08619   11.03543
      H1     8.03018    8.20919   10.11597
       H     3.52111   14.61644   13.67330
       O     3.72511   13.66759   13.55447
      H1     4.14131   13.51574   12.67665
       H     6.93028   17.17169    8.33099
       O     7.01491   16.22593    8.57915
      H1     6.59679   15.76045    7.85204
       H     8.45946    9.25215    4.01228
       O     9.00768    8.90763    3.23996
      H1     8.54922    9.27801    2.50633
       H     3.24100    6.43664    6.69803
       O     3.52399    6.08191    5.86013
      H1     4.05522    5.27262    6.07400
       H    10.93682    8.93176   11.18517
       O    11.33578    9.79039   11.42255
      H1    11.40414   10.27005   10.59772
       H    12.38284   11.54444    8.92760
       O    11.40271   11.58620    9.11806
      H1    11.27267   12.46730    9.41560
       H     9.49221    7.73555    6.02043
       O     8.98043    6.92206    6.29860
      H1     9.39237    6.18572    5.82331
       H     1.67453    9.57995    5.60391
       O     2.49918    9.77465    6.08532
      H1     2.29348   10.58634    6.54995
       H     2.09250   16.11971    6.89505
       O     2.66945   16.83930    7.22889
      H1     2.59788   17.66547    6.66174
       H     4.57707   14.55034    2.96152
       O     4.86449   15.09427    2.17112
      H1     4.55564   16.04063    2.24286
       H     3.74602   12.07974    6.95433
       O     2.84761   12.16990    7.36128
      H1     3.00308   11.93558    8.28378
       H     1.14437   14.30228    6.13476
       O     1.31567   14.59471    7.09463
      H1     1.95867   13.86211    7.27843
       H     7.89705    6.53134    4.23597
       O     7.26811    5.97016    3.69799
      H1     7.36026    6.26793    2.80567
       H     3.34720   14.14170    1.28717
       O     2.86645   13.44515    0.82458
      H1     2.53410   13.98746    0.06264
       H     8.00556    7.59195    7.71103
       O     7.50928    8.04857    8.39740
      H1     7.26300    8.88952    8.03460
       H    10.25916   10.06156    5.68043
       O    10.69926    9.35457    5.23846
      H1    10.21020    9.27189    4.41235
       H    10.55853   13.67917    4.91055
       O    10.66509   12.76379    4.76082
      H1    11.41086   12.53775    4.17188
       H     3.58090    8.70708    3.47976
       O     3.08109    8.72581    2.65271
      H1     2.66074    9.57532    2.74125
       H     6.39931    6.42953    8.69345
       O     5.82350    5.62699    8.82726
      H1     5.11335    6.05234    9.35371
       H     5.57422   13.76869   10.61934
       O     5.30017   12.84268   10.84163
      H1     4.46711   12.74354   10.31845
       H     8.71587   15.47452    6.32500
       O     8.90570   15.55028    5.41147
      H1     8.10329   15.39057    4.93154
       H     6.05969   16.07712    3.52122
       O     6.44065   16.27704    4.37441
      H1     5.87967   15.90750    5.10053
       H     2.20302   15.73658   10.34599
       O     2.90818   16.35152   10.12252
      H1     2.78883   16.50234    9.20475
       H     6.33496   11.56732   10.55212
       O     6.94343   10.84643   10.57236
      H1     7.71301   11.22188   10.98935
       H     1.35548    8.30369    9.32882
       O     0.88616    8.84666    9.98748
      H1     1.63719    9.09194   10.61480
       H     6.70548   10.59112    4.29306
       O     6.96967    9.91095    4.93355
      H1     6.36177    9.21484    4.88330
       H     9.06618   12.48400   12.99143
       O     9.24230   12.00422   12.20891
      H1     9.92363   11.40996   12.35783
       H     1.87496   12.09296    3.55761
       O     2.33162   11.50989    2.95633
      H1     2.33207   11.94758    2.10277
       H     5.47949   12.68087    5.72258
       O     5.43914   12.73069    6.69010
      H1     6.20428   12.09320    6.88204
       H    10.26640   11.44802    7.49811
       O     9.70277   11.24389    6.73680
      H1     9.99138   11.90095    6.02965
       H    11.06766   17.91792    7.08449
       O    11.47063   17.36826    6.41873
      H1    10.85633   16.72743    6.01841
       H     7.98960   11.21303    7.50149
       O     7.16518   11.06770    8.01473
      H1     7.39769   11.31560    8.95932
       H     6.10645   15.93699    9.90728
       O     5.44598   15.62817   10.59329
      H1     4.59736   15.84621   10.31743
       H     5.22546   14.42998    6.62812
       O     5.33290   15.36126    6.77509
      H1     4.44678   15.75994    6.89134
       H     2.46011    8.53473   12.16806
       O     2.90347    9.37616   11.99261
      H1     3.73133    9.21966   12.42660
       H    10.71686   14.72307   11.00611
       O    10.76742   13.77192   10.86296
      H1    10.03463   13.24718   11.23800
       H     3.15424    7.53346    8.83157
       O     2.62814    7.66133    8.00514
      H1     2.72319    8.50063    7.56657
       H     0.42390   12.42094    4.45030
       O     1.01542   13.21136    4.53148
      H1     0.63961   13.87301    3.91792
       H     7.55393   12.15449    2.43897
       O     6.68113   11.71272    2.59106
      H1     6.47470   11.60620    1.61613
       H     5.70504    9.85386   13.59730
       O     5.31088   10.33745   12.84119
      H1     6.04849   10.53709   12.22710
       H     1.87368   11.65644    9.80690
       O     2.81060   11.58923    9.83586
      H1     3.12609   10.91756   10.43139
       H     4.55998    7.38089    5.14288
       O     5.34042    7.82529    4.81720
      H1     5.98861    7.07502    4.83060
       H     7.45331   18.12245    5.02464
       O     7.28440   19.03101    5.32934
      H1     7.97424   19.61791    5.00716
       H     9.66908   12.64596    3.29732
       O     9.31761   12.89886    2.41717
      H1     9.86065   12.37836    1.76848
       H     5.29639   12.74945    3.43913
       O     4.58262   13.07719    4.10731
      H1     3.82939   12.46347    3.94574

