138
frame 0 | Written by MDAnalysis XYZWriter (release 2.4.3)
       H    -5.01980   -3.70446  -10.88101
       O    -4.72808   -4.28919  -10.12987
      H1    -4.31058   -3.66930   -9.44958
       H    -9.27032   -4.90428  -16.13225
       O    -9.67784   -5.74857  -15.75865
      H1   -10.05410   -6.13720  -16.57285
       H    -7.34822   -3.17396  -16.59560
       O    -8.26755   -3.51755  -16.86942
      H1    -8.87137   -2.82512  -16.60224
       H    -4.55515   -2.51455  -15.40142
       O    -3.70263   -2.99795  -15.70190
      H1    -3.26640   -3.04262  -14.85025
       H   -12.14210    1.15726  -15.04662
       O   -13.03578    1.46370  -15.07025
      H1   -13.16666    2.42741  -14.86732
       H    -5.46518    4.09992  -14.72051
       O    -5.38628    5.00604  -14.48720
      H1    -4.87620    5.41516  -15.24994
       H    -1.47730   -3.57461  -12.31044
       O    -1.89280   -3.59736  -13.24370
      H1    -1.72153   -4.49804  -13.55485
       H   -12.78716   -0.47779  -12.30445
       O   -11.88007   -0.64020  -12.57320
      H1   -11.72177   -0.04385  -13.33360
       H    -6.99106    1.13541  -11.35576
       O    -7.76032    0.58633  -11.35798
      H1    -8.52766    1.12340  -11.05658
       H    -7.91378   -3.08579  -18.67470
       O    -7.71316   -2.76590  -19.54441
      H1    -7.66170   -3.48702  -20.20858
       H    -5.14267    1.46294  -18.43184
       O    -5.10795    2.47990  -18.44873
      H1    -5.78545    2.79837  -17.82609
       H     0.53999   -2.09919  -15.44759
       O     0.78970   -1.83215  -16.38688
      H1    -0.04983   -1.60907  -16.85992
       H    -7.51961   -2.63964  -10.99816
       O    -7.34466   -1.95205  -10.38564
      H1    -7.64342   -1.12925  -10.77221
       H   -11.24864   -2.11642  -13.08108
       O   -10.78148   -2.90664  -13.40928
      H1   -11.36759   -3.69126  -13.33780
       H    -7.83597   -0.47764  -12.82883
       O    -7.61443   -1.28143  -13.41739
      H1    -8.44243   -1.63507  -13.70958
       H    -3.27266   -5.90085  -17.31334
       O    -4.02874   -5.36850  -17.18957
      H1    -3.75525   -4.57462  -16.68356
       H    -9.61828   -1.77559  -19.49236
       O   -10.29644   -1.22729  -19.07173
      H1   -11.03813   -1.40300  -19.67439
       H    -0.25649   -0.54779  -13.53851
       O    -0.79367    0.16542  -13.15551
      H1    -1.54814   -0.21917  -12.64445
       H   -10.05314    3.90644  -15.75154
       O    -9.66299    3.22490  -15.13463
      H1    -9.12632    3.68274  -14.42096
       H    -6.37555   -1.11372  -19.03916
       O    -5.82807   -0.47342  -18.58844
      H1    -4.93288   -0.56050  -19.01495
       H    -6.60237   -6.55864  -17.15682
       O    -7.05235   -6.83446  -16.35440
      H1    -7.83549   -6.22314  -16.21393
       H    -9.69359    0.38720  -18.51693
       O    -9.35034    1.08877  -17.93152
      H1    -8.68205    1.53454  -18.48850
       H    -6.03232   -0.92233  -16.45025
       O    -6.28272   -1.69114  -15.88530
      H1    -6.58092   -1.19580  -15.05868
       H    -2.83569    3.03233  -12.39903
       O    -2.18181    3.35283  -11.82058
      H1    -2.68402    4.19075  -11.53026
       H    -3.07629    0.33508  -19.41949
       O    -3.24679   -0.61914  -19.26033
      H1    -2.58806   -0.97231  -18.62051
       H    -3.25665   -1.56862  -11.61403
       O    -2.90052   -0.67909  -11.54286
      H1    -2.89093   -0.60639  -10.59826
       H     0.98426   -2.55253  -13.19462
       O     0.35833   -2.32219  -13.92392
      H1    -0.41768   -2.81644  -13.71355
       H    -7.77418    3.55886  -12.31855
       O    -8.51913    3.99312  -12.79206
      H1    -9.35385    3.92036  -12.31694
       H    -3.12264    2.48852  -18.62176
       O    -2.46742    2.11497  -19.19001
      H1    -1.65005    2.40047  -18.80854
       H    -7.47814    4.53325  -16.87803
       O    -7.54121    3.56927  -16.92063
      H1    -8.27801    3.39358  -16.26076
       H    -0.29736    0.14981  -16.32721
       O    -0.81092    0.81239  -15.83750
      H1    -0.69371    0.54477  -14.88327
       H    -2.78507    1.19614  -15.81257
       O    -3.58498    1.71519  -15.73605
      H1    -3.93724    1.62313  -16.62082
       H    -1.73092   -2.79255  -17.86230
       O    -1.73368   -1.86289  -17.52592
      H1    -2.44184   -1.89982  -16.81965
       H    -2.97864   -5.56492  -11.21743
       O    -2.95044   -6.24263  -11.93575
      H1    -2.98563   -5.70708  -12.74965
       H   -10.40646   -1.50412  -17.19963
       O   -10.35702   -1.86635  -16.25815
      H1   -11.14635   -2.42435  -16.11834
       H   -12.14745    2.02270  -16.95401
       O   -11.83617    2.35892  -17.78526
      H1   -10.88922    2.10764  -17.71828
       H    -4.64969   -6.43767  -15.34713
       O    -4.74069   -6.91537  -14.48767
      H1    -5.68367   -6.89654  -14.34628
       H    -9.37678   -4.03062  -12.40226
       O    -8.76225   -4.21297  -11.65572
      H1    -9.39814   -4.42499  -10.98976
       H   -10.08798    0.02287  -15.31111
       O   -10.52826    0.64944  -14.71446
      H1   -10.00642    1.44499  -14.93230
       H    -6.40262   -2.78340  -13.09080
       O    -5.70496   -3.39134  -12.76893
      H1    -5.97703   -4.27670  -13.16677
       H    -5.51514   -5.17294  -18.12112
       O    -6.16513   -5.41854  -18.77548
      H1    -5.79653   -6.16101  -19.24720
       H    -7.53685   -5.53894  -12.59076
       O    -7.38932   -6.21038  -13.29618
      H1    -8.21426   -6.24398  -13.77370
       H    -0.36533   -3.66249  -17.13467
       O    -0.87849   -4.44770  -17.40191
      H1    -0.23342   -5.08143  -17.76511
       H    -6.15653    3.16131  -11.38874
       O    -5.74443    2.47072  -11.98432
      H1    -6.16481    2.48542  -12.88080
       H    -1.39624   -6.53459  -15.17942
       O    -1.13759   -5.64999  -14.83599
      H1    -1.06684   -5.12192  -15.62135
       H    -6.76525    2.82623  -15.53843
       O    -6.33544    2.43490  -14.74469
      H1    -5.61952    2.02542  -15.22503

