138
frame 0 | Written by MDAnalysis XYZWriter (release 2.4.3)
       H   -12.53385   -0.39926    5.52404
       O   -13.43936   -0.40067    5.86317
      H1   -13.89144    0.35281    5.45272
       H    -6.83146   -4.69838    5.73485
       O    -7.77100   -4.78291    5.80449
      H1    -8.13918   -4.56671    4.96934
       H    -9.76672   -1.89735    1.84934
       O    -8.83416   -2.07119    2.09226
      H1    -8.52570   -1.37350    2.68874
       H    -7.76078    3.34308    6.31266
       O    -7.21021    3.93314    5.73109
      H1    -7.72591    4.04247    4.90719
       H    -9.26408   -5.07585    2.82187
       O    -9.20123   -4.41820    3.51217
      H1    -9.21400   -3.60282    2.97181
       H   -11.98975    0.47552    2.41673
       O   -11.44300    1.30165    2.43411
      H1   -10.85653    1.05868    1.69604
       H    -2.69057    1.27299    3.55943
       O    -2.63267    1.81733    2.78415
      H1    -3.50863    1.86052    2.34837
       H   -13.66976   -0.99432    3.64388
       O   -13.41377   -0.97456    2.71581
      H1   -14.21349   -0.77895    2.21434
       H   -10.79483   -1.68987    4.56123
       O   -10.98267   -0.77672    4.65791
      H1   -10.36129   -0.35708    4.05315
       H   -10.66062   -4.02461    4.33986
       O   -11.13730   -3.45602    5.03603
      H1   -11.39304   -4.09504    5.78008
       H    -8.91436   -3.84531   12.36369
       O    -8.24909   -3.18609   12.61075
      H1    -7.99614   -2.79305   11.77991
       H    -5.58871   -6.13149    5.28454
       O    -5.07481   -5.30766    5.23633
      H1    -5.05235   -4.92560    4.36833
       H    -8.14804   -2.97007    6.14247
       O    -8.68016   -2.18448    6.34827
      H1    -9.60241   -2.37855    6.11140
       H   -14.31413    0.63710    9.58128
       O   -13.66599    1.28704    9.76574
      H1   -12.84871    0.81879    9.55589
       H    -4.74347    0.83057    7.36142
       O    -4.84214    0.04947    6.84876
      H1    -5.67888    0.09430    6.34942
       H    -7.50745    3.02067    1.97871
       O    -7.33945    2.15837    1.49321
      H1    -6.37956    2.22367    1.27987
       H    -8.55910    2.27637    8.52329
       O    -7.77595    2.17293    7.90631
      H1    -7.01230    2.48204    8.40543
       H   -10.51036    0.28944    6.04960
       O   -10.28708    0.82455    6.82779
      H1   -10.96030    1.48457    6.82058
       H    -8.15279    5.07104    7.13192
       O    -8.19505    6.03173    7.33355
      H1    -8.75900    6.08323    8.13670
       H   -10.77244   -1.29577    8.99137
       O   -11.28425   -0.42605    8.82455
      H1   -10.92905   -0.15310    7.98230
       H    -8.69308   -6.41231    5.50782
       O    -9.55400   -6.89771    5.51104
      H1    -9.71308   -7.21924    4.57457
       H    -7.60088   -1.54748   10.08140
       O    -7.52397   -2.53137   10.24718
      H1    -6.62838   -2.80552   10.46036
       H    -7.56023    0.18829    4.16154
       O    -7.77140    0.01691    3.25747
      H1    -7.38457    0.68498    2.69283
       H   -11.37642   -3.32459    1.37335
       O   -11.42517   -2.34920    1.33412
      H1   -12.17186   -2.14370    1.93484
       H    -2.69805    3.22587    7.29486
       O    -3.51133    2.68411    7.18687
      H1    -4.00624    2.95218    6.39988
       H    -3.23481   -2.47862   11.10711
       O    -3.79829   -3.19444   10.84999
      H1    -4.06932   -3.07632    9.92307
       H    -8.02608   -1.79196   -0.93101
       O    -7.60250   -1.22755   -0.23980
      H1    -7.96614   -1.64847    0.58140
       H    -3.45174    0.13638    5.73753
       O    -2.68068    0.10194    5.13539
      H1    -1.99155    0.04565    5.81713
       H    -4.76639   -4.28076    2.31941
       O    -3.95391   -4.30035    2.86249
      H1    -3.54627   -3.40771    2.83415
       H   -13.18912    1.83733    7.26112
       O   -12.55406    2.38264    6.81482
      H1   -13.15676    3.05075    6.42476
       H    -9.45975    3.10088   10.17138
       O    -9.96840    2.78042    9.39632
      H1   -10.53955    3.47077    9.09737
       H    -3.54710   -5.00452    5.80402
       O    -2.73795   -4.86600    6.40066
      H1    -2.38200   -4.01101    6.27511
       H    -7.83002    0.86725    6.65078
       O    -7.55322    0.26888    5.95502
      H1    -8.01038   -0.57891    6.20307
       H    -9.02784    4.66238    3.50888
       O    -8.51821    3.94158    3.14617
      H1    -9.09896    3.15618    3.20331
       H    -4.76921   -1.67051    7.71827
       O    -4.65658   -2.46400    8.25798
      H1    -4.41969   -3.21854    7.71627
       H    -9.83901   -2.26098   12.08427
       O   -10.59374   -1.82896   11.76883
      H1   -10.30457   -0.93317   11.73928
       H   -10.70158    1.07129   10.49364
       O   -10.48021    1.04602   11.47047
      H1   -11.12467    1.66078   11.88253
       H    -4.99902    4.13744    4.37597
       O    -4.20766    3.68857    4.71827
      H1    -3.60617    3.75577    3.96870
       H    -3.50403   -0.83552    3.29416
       O    -3.38487   -1.36865    2.56434
      H1    -3.90376   -0.97639    1.87197
       H    -8.88113    0.22306   10.80324
       O    -8.07841    0.20933   10.21408
      H1    -8.30500    0.43048    9.29299
       H    -5.94384    1.55070   12.25685
       O    -6.25970    1.84040   11.37458
      H1    -6.75159    1.11863   11.15211
       H   -11.00694   -5.92681    6.45847
       O   -11.43359   -5.47225    7.22352
      H1   -10.63758   -5.13321    7.67225
       H   -13.50823   -2.05364    6.60178
       O   -13.55443   -2.82599    7.21856
      H1   -13.20209   -2.53164    8.06529
       H    -4.64464    2.83184    8.43997
       O    -5.49024    3.08397    8.96823
      H1    -5.44367    2.51007    9.75728
       H    -9.13730    0.22332   -0.40536
       O    -9.44587    1.08136   -0.16138
      H1    -8.74089    1.35971    0.43950
       H   -10.44948   -3.18900    9.93279
       O    -9.97737   -3.46427    9.16521
      H1    -9.10310   -3.15325    9.30985

