138
frame 9 | Written by MDAnalysis XYZWriter (release 2.4.3)
       H     4.69938   12.07787   18.79711
       O     4.31364   12.46713   17.97781
      H1     5.08861   12.60767   17.42724
       H     7.64285   18.89776   13.59834
       O     8.33933   18.47097   13.06880
      H1     9.06593   18.71318   13.62750
       H    13.25626   20.37157   11.81457
       O    13.27923   19.82094   12.58444
      H1    13.07946   18.92103   12.19220
       H     5.74275   12.69281   14.86537
       O     6.16398   12.05232   15.48672
      H1     5.85152   11.16572   15.15421
       H    15.22096   18.67009   16.27866
       O    14.97110   19.42191   15.72805
      H1    14.41786   19.15964   15.02884
       H     9.40115    9.32911   19.29866
       O     9.25235    8.64562   18.62392
      H1     8.76374    7.89571   19.05626
       H    12.95788   17.59637   15.88668
       O    13.13437   17.34494   14.95972
      H1    13.86980   16.71790   14.94540
       H     6.95633   18.89431   15.54079
       O     6.58290   19.52167   14.92349
      H1     5.65181   19.72784   15.13354
       H    16.66549   17.94275   14.23646
       O    17.29682   17.50752   14.87133
      H1    18.17117   17.91323   14.80377
       H    12.52400   12.84418   18.01589
       O    12.99729   13.37897   18.71435
      H1    13.58888   12.66888   19.12411
       H     7.65152   11.52255   18.23222
       O     7.45916   10.59478   18.32657
      H1     8.22563   10.06110   18.51426
       H    10.74096    9.46301   11.30462
       O    11.06388   10.34781   11.57889
      H1    11.33314   10.79551   10.78918
       H    14.66710   10.77494   11.39362
       O    14.96407    9.98763   11.75401
      H1    14.69053    9.27624   11.15399
       H     6.85520   16.80309   12.81085
       O     6.04123   16.28372   12.76532
      H1     6.16812   15.77290   11.94903
       H     9.30001    6.79243   15.89394
       O    10.25190    6.80246   15.68561
      H1    10.20905    6.23993   14.89281
       H     6.65147   14.72641   14.64778
       O     7.47287   15.11257   15.04359
      H1     8.04355   14.33595   15.10072
       H    13.80836    9.55079   12.96882
       O    12.88601    9.35766   13.24961
      H1    12.36405    9.82796   12.60024
       H     9.74881   17.37019   11.95909
       O    10.30229   17.04413   11.26853
      H1    11.24491   17.19313   11.57148
       H    11.30254   13.73566   16.21418
       O    11.44483   12.82291   16.47530
      H1    12.03306   12.53502   15.76931
       H    14.33795   14.97211   18.13402
       O    14.88451   15.68932   18.44214
      H1    14.17256   16.38924   18.63823
       H    15.32367    8.65157   17.61530
       O    15.64485    7.77081   17.54960
      H1    15.70682    7.55160   16.59675
       H    12.98653   18.78214   18.12566
       O    12.80120   17.90717   17.76853
      H1    11.79693   17.84519   17.66555
       H     9.66446   12.58272   15.36075
       O     8.84243   12.71004   14.96231
      H1     8.14665   12.07983   15.27931
       H    16.53659   17.71301   16.56645
       O    16.12898   17.84700   17.46378
      H1    15.62875   17.05371   17.65214
       H    14.37613   11.93659   14.72681
       O    13.42213   11.89427   14.56046
      H1    13.14759   10.98388   14.54932
       H     9.31261   13.58528   18.53305
       O     8.83557   12.90630   18.01278
      H1     9.45376   12.71062   17.26768
       H     5.85489   11.95967   11.44015
       O     6.48340   11.28688   11.58920
      H1     7.27682   11.78246   11.76961
       H    17.65108   14.89073   16.54954
       O    17.03944   14.25583   16.86998
      H1    16.34485   14.72814   17.32734
       H     9.25983   12.63378   13.07654
       O     9.28587   12.27569   12.17475
      H1     9.84474   11.54638   12.09677
       H    15.84354   15.51892   12.16969
       O    14.87688   15.37643   12.06488
      H1    14.75353   14.45503   11.83936
       H    17.59480   11.55972   18.74261
       O    16.72381   11.15521   18.55488
      H1    16.58084   11.50061   17.63696
       H     6.22894   16.41858   19.44961
       O     6.02665   16.64920   18.52544
      H1     5.36250   15.94269   18.37963
       H     7.68705   16.54322   15.92091
       O     7.86500   17.34306   16.44731
      H1     7.40078   17.16731   17.29301
       H    18.14526   13.78943   18.13197
       O    18.51613   13.22688   18.88979
      H1    18.62756   13.89926   19.61765
       H    10.22577   16.29825   18.24190
       O    10.23304   17.24725   18.12367
      H1     9.46052   17.58923   17.59143
       H    10.58167   14.87642   10.64269
       O    11.06512   14.10658   10.95906
      H1    10.44312   13.60069   11.46806
       H    13.59183   16.81654   11.71351
       O    13.01831   17.38486   11.20580
      H1    13.45641   17.40714   10.38093
       H    14.55551   14.80813   14.05907
       O    14.72042   14.87560   15.01213
      H1    15.69181   14.87499   15.07435
       H     5.64052    8.10959   17.50084
       O     6.16971    8.68217   16.92729
      H1     6.69950    9.26450   17.55484
       H    11.74885    7.09661   15.04620
       O    12.40381    6.76476   14.37154
      H1    12.75488    7.60389   14.06707
       H     7.51175    9.92957   14.40177
       O     6.69771    9.66250   13.95143
      H1     6.67943   10.30264   13.20224
       H    17.12371   11.41101   15.11501
       O    16.40087   11.65333   15.69729
      H1    16.63656   12.52651   16.01843
       H    12.59882   13.21853   11.61863
       O    13.46420   12.84086   11.88865
      H1    13.41564   12.59545   12.82987
       H     9.98270   15.95973   15.53905
       O    10.75869   15.46650   15.70444
      H1    11.46870   16.11724   15.43859
       H     9.96636    8.81270   15.37872
       O     9.59814    9.60900   15.83953
      H1     9.56926    9.37694   16.76338
       H    10.91720   19.82961   15.20100
       O    10.86776   19.04337   14.61514
      H1    11.76816   18.84452   14.40108

