138
frame 3 | Written by MDAnalysis XYZWriter (release 2.4.3)
       H   -11.66075   10.32662  -13.72158
       O   -12.19476    9.62916  -13.44121
      H1   -12.40013    9.71132  -12.48643
       H    -7.35112    6.19189   -8.77968
       O    -7.84261    6.35792   -7.98377
      H1    -8.76382    6.13446   -8.10239
       H   -10.17266   -0.87483  -10.69208
       O   -10.37257   -0.37520  -11.49427
      H1   -11.09827   -0.95786  -11.86860
       H   -10.42542    5.50948   -6.99642
       O   -10.44043    5.33742   -7.97475
      H1   -10.05250    4.44858   -8.14762
       H   -15.69664    0.01189  -13.05908
       O   -14.82788    0.44963  -12.95364
      H1   -14.12858    0.03234  -13.47219
       H    -7.08966    9.03486   -9.46708
       O    -7.87015    8.80953   -9.96296
      H1    -8.67091    8.88002   -9.41833
       H   -13.69508    1.61344  -15.39233
       O   -14.28963    2.18651  -15.91429
      H1   -15.09801    2.47850  -15.46774
       H   -10.16532    2.71190   -5.80155
       O    -9.73644    2.59338   -4.90098
      H1   -10.40237    2.94977   -4.31994
       H   -15.67432    1.69160  -11.91391
       O   -15.84419    2.50862  -11.36307
      H1   -16.80887    2.63396  -11.21145
       H   -13.48631    9.35879   -9.99957
       O   -12.80809    8.90135  -10.54249
      H1   -12.00063    9.40791  -10.36738
       H    -6.35678    5.62841  -15.70473
       O    -5.95246    6.47490  -15.41055
      H1    -5.05128    6.27071  -15.40996
       H   -13.33559   -1.08008   -9.00642
       O   -12.42052   -1.16054   -9.19977
      H1   -12.36044   -0.55092  -10.00646
       H    -9.75452   10.61064  -10.96105
       O   -10.53524   10.44247  -10.32877
      H1   -10.82497   11.33697  -10.12363
       H   -11.12740    7.05582  -12.03375
       O   -10.67300    6.23924  -11.81986
      H1    -9.72240    6.49815  -11.74176
       H   -13.27773   -2.20271  -12.09873
       O   -12.46290   -2.06230  -12.64304
      H1   -12.68920   -1.55619  -13.40513
       H   -13.78514    2.90549   -9.29317
       O   -13.04861    3.51016   -9.28962
      H1   -13.44051    4.25697   -9.79128
       H    -7.64114    0.96605  -12.42271
       O    -7.98430    0.14382  -12.90105
      H1    -8.88767    0.04018  -12.55174
       H    -7.67225    3.56653   -8.40458
       O    -6.77906    3.24915   -8.27498
      H1    -6.35163    3.76515   -7.63790
       H   -17.07993    6.39643  -12.95311
       O   -16.38411    6.44354  -12.28789
      H1   -16.08370    7.38266  -12.32498
       H   -14.29105    6.33815   -8.68434
       O   -15.18033    6.33928   -8.26179
      H1   -15.80567    5.93339   -8.88123
       H   -12.97204    5.53582   -6.75971
       O   -12.90530    4.55717   -6.74809
      H1   -12.88460    4.19084   -7.61402
       H    -7.40568    8.13040  -15.06053
       O    -7.78176    8.28325  -14.23592
      H1    -7.56445    7.52081  -13.65376
       H   -11.98176    3.10384  -11.34527
       O   -11.11063    3.39969  -11.58591
      H1   -11.19774    4.37882  -11.65908
       H   -16.10691    3.24902   -6.55684
       O   -15.23344    2.86076   -6.73020
      H1   -14.63983    3.64498   -6.67049
       H   -10.21297    3.28991  -10.11379
       O    -9.77333    3.06221   -9.24099
      H1   -10.29675    2.32619   -8.89462
       H   -12.39790    7.16653   -9.68374
       O   -12.75402    6.39699   -9.25148
      H1   -12.02330    5.94330   -8.85282
       H   -10.45929    4.01201  -16.12013
       O    -9.63776    3.74642  -15.70365
      H1    -9.89827    3.20027  -14.96372
       H   -15.38703    1.85681   -9.79596
       O   -14.90303    1.44389   -9.07117
      H1   -15.11878    1.96122   -8.29689
       H   -17.13968    5.88906  -10.73302
       O   -17.39153    5.54552   -9.84615
      H1   -18.14241    6.07583   -9.59688
       H   -14.73705    5.54054  -11.61746
       O   -14.06420    4.82953  -11.53552
      H1   -14.59002    4.05918  -11.73876
       H    -9.23984    1.25526  -13.36423
       O    -9.96502    1.82240  -13.70336
      H1   -10.26144    2.41183  -12.97180
       H    -6.61393    4.16274  -17.11649
       O    -6.87471    3.80374  -16.18407
      H1    -7.82925    3.82523  -16.19473
       H    -9.26849    7.75443  -14.97509
       O    -9.82123    7.40621  -15.69975
      H1   -10.61593    7.11879  -15.34099
       H    -5.04795    5.65463  -10.45099
       O    -5.95040    5.37398  -10.24589
      H1    -5.84882    4.43399  -10.11234
       H   -10.44459    8.87943   -7.55554
       O    -9.61706    9.32837   -7.75532
      H1    -8.97898    9.09911   -7.10922
       H   -13.97670    4.49833  -18.26977
       O   -13.52735    4.57077  -17.37649
      H1   -13.84749    3.77544  -16.95045
       H    -7.26601    5.99973  -11.31193
       O    -7.79760    6.62203  -11.78600
      H1    -7.75217    7.49821  -11.22938
       H   -12.03887   -0.26243  -15.25354
       O   -12.33041    0.46670  -14.65092
      H1   -11.52629    0.84884  -14.28105
       H   -12.77579    6.48389  -13.88308
       O   -12.87044    7.18463  -14.52329
      H1   -12.61306    7.93408  -13.97793
       H   -16.36303    4.52131  -15.43022
       O   -16.43454    3.78053  -14.84835
      H1   -16.15538    4.12162  -14.00657
       H   -14.18452    8.85778  -11.90345
       O   -15.10457    8.73310  -12.18114
      H1   -15.46210    9.60125  -12.33644
       H    -7.90474    2.71246  -10.86995
       O    -7.18769    2.35489  -11.37492
      H1    -7.18345    2.85996  -12.21245
       H   -11.86452    0.57180   -7.84957
       O   -11.37979    1.28208   -7.37663
      H1   -10.50324    0.85002   -7.22026
       H    -6.50474    4.06991  -14.43937
       O    -6.57556    4.12542  -13.47223
      H1    -6.86903    5.04761  -13.36886
       H   -13.09602    7.92943   -6.87257
       O   -13.14475    7.27385   -6.11284
      H1   -14.04796    7.26286   -5.74763
       H   -15.06311    8.16002   -8.57812
       O   -15.19723    9.05386   -8.93127
      H1   -15.65866    8.99976   -9.81730

