138
frame 2 | Written by MDAnalysis XYZWriter (release 2.4.3)
       H   -14.11610  -11.28138   10.09503
       O   -14.09948  -11.86514    9.35560
      H1   -14.11059  -11.23684    8.60144
       H   -11.24208  -14.39765   14.79323
       O   -11.54555  -15.27460   14.50515
      H1   -12.33108  -15.01517   13.94149
       H   -11.75981   -7.16947   17.02687
       O   -12.64214   -7.35737   17.36663
      H1   -12.54572   -6.92185   18.25338
       H   -11.36285  -10.16965   17.91997
       O   -12.12661  -10.29081   18.41771
      H1   -12.44688   -9.37899   18.33912
       H    -7.39236   -4.77466   17.07960
       O    -7.61658   -4.33620   17.91168
      H1    -6.88157   -4.52173   18.56908
       H   -13.59036  -11.17205   15.73234
       O   -13.29599  -11.74338   16.43842
      H1   -12.98502  -11.19438   17.20925
       H   -15.40877  -14.69742   19.69951
       O   -15.75837  -14.29759   18.89382
      H1   -14.98451  -13.77617   18.69826
       H   -10.79669   -4.76321   16.37268
       O   -10.68253   -3.87417   16.06319
      H1    -9.80853   -3.86538   15.79045
       H   -10.26369   -8.84162   16.31300
       O   -10.17139   -9.79718   16.42647
      H1   -10.39990  -10.05025   15.53638
       H    -8.43214  -14.36783   16.36944
       O    -7.73845  -14.84377   15.86184
      H1    -7.56433  -14.23809   15.15289
       H   -15.39893  -12.34713   16.51323
       O   -16.30334  -12.53465   16.71849
      H1   -16.31333  -13.43789   16.41136
       H    -9.91578  -11.04709    9.57837
       O    -9.43043  -11.30291    8.75213
      H1   -10.10431  -11.13079    8.04961
       H    -8.29485  -12.16852   10.07778
       O    -8.10743  -12.38703   11.01377
      H1    -7.67052  -11.54126   11.35828
       H   -11.44028  -10.18069   10.60223
       O   -10.65515  -10.51729   11.14755
      H1   -10.90742  -11.32373   11.66103
       H   -16.86006   -9.60722   13.30727
       O   -16.57067   -9.04622   14.04513
      H1   -15.62129   -9.25702   14.24490
       H   -12.06857   -5.59993    9.79392
       O   -11.38853   -6.24828    9.97792
      H1   -10.79923   -6.22360    9.22178
       H    -8.21007  -13.70103   12.49662
       O    -7.63528  -14.22620   13.07034
      H1    -7.94372  -15.13874   12.97340
       H    -9.61204   -7.00458   19.76640
       O    -9.55048   -6.27573   19.05750
      H1    -8.63185   -5.88560   19.20918
       H   -11.93916  -12.34244   15.31082
       O   -11.10342  -12.61424   14.96444
      H1   -11.19701  -12.75597   14.03213
       H    -9.00867   -4.76111   12.62718
       O    -8.72183   -4.07228   12.04432
      H1    -8.56565   -4.44901   11.19417
       H    -8.44267   -8.41098   15.40906
       O    -7.66936   -8.13719   14.89184
      H1    -7.10994   -8.90102   15.08196
       H    -4.07485  -12.55957   15.77665
       O    -3.60854  -11.71299   15.67275
      H1    -3.11148  -11.84615   14.88167
       H   -15.55357  -13.03244   13.29675
       O   -15.48352  -12.14839   12.96835
      H1   -16.43942  -11.91607   12.78387
       H    -3.85092   -8.95195   13.73784
       O    -3.86797   -9.27426   12.86664
      H1    -3.45441   -8.50329   12.40771
       H    -6.42818   -8.79112   18.19093
       O    -7.20224   -9.10874   18.75973
      H1    -7.59323   -9.87504   18.40033
       H    -4.75821  -14.29835   11.54177
       O    -4.92980  -14.00412   12.45770
      H1    -5.93749  -14.16115   12.48821
       H   -14.21401  -15.26194   12.68965
       O   -14.32970  -14.70185   13.48034
      H1   -15.16292  -14.91899   13.79018
       H   -12.20837   -6.99024   11.51694
       O   -12.73061   -7.38796   12.24973
      H1   -13.06351   -6.64870   12.70220
       H   -13.18860   -8.73505   11.22995
       O   -13.22869   -9.36505   10.52853
      H1   -14.02360   -9.11970   10.04944
       H    -6.22837  -10.55728   13.13001
       O    -6.42344  -10.64468   12.19589
      H1    -6.59629   -9.74256   11.86412
       H   -10.10527  -12.92136   16.45792
       O    -9.79308  -13.36809   17.28834
      H1   -10.64010  -13.57080   17.80520
       H   -10.82761  -16.33239   15.90575
       O   -10.82604  -16.87958   16.67958
      H1    -9.92609  -17.24307   16.84870
       H    -7.68053   -8.21873   10.62384
       O    -7.38939   -7.86304   11.48876
      H1    -8.23341   -7.38371   11.62864
       H    -5.23915  -10.91594   15.46895
       O    -6.18302  -10.73687   15.23989
      H1    -6.64749  -11.12444   16.00121
       H   -13.76616   -6.21317   16.58341
       O   -14.41569   -5.59860   16.25835
      H1   -15.16228   -6.12137   15.88122
       H   -11.20817  -13.95008   11.74006
       O   -11.55280  -13.16769   12.16534
      H1   -12.48294  -13.48887   12.37088
       H   -16.65665   -7.76624   15.17694
       O   -16.54680   -6.86890   15.59257
      H1   -16.69784   -6.86446   16.58129
       H   -16.75964   -9.77902   17.40708
       O   -16.40783   -9.40322   18.20082
      H1   -16.51945   -8.47196   18.05193
       H   -10.63504   -7.04813   12.70252
       O    -9.99065   -6.36368   12.46592
      H1   -10.42486   -5.93321   11.71762
       H    -9.42703   -8.94617   13.55510
       O   -10.29285   -9.42545   13.58970
      H1   -10.38595   -9.76153   12.66231
       H    -7.16345   -4.85537   14.88342
       O    -7.52964   -5.52447   15.44348
      H1    -7.30106   -6.41997   15.14971
       H    -9.80922   -6.60428   17.19508
       O   -10.05002   -6.72428   16.27485
      H1    -9.51264   -6.00146   15.90446
       H    -4.89173  -13.88678   17.41642
       O    -5.15250  -13.78582   16.48588
      H1    -6.04974  -14.08358   16.50043
       H    -8.24783  -12.11528   17.64739
       O    -7.43115  -11.66608   17.63155
      H1    -6.82365  -12.37689   17.85165
       H   -13.93658   -4.78883   14.46561
       O   -13.77291   -4.87208   13.48178
      H1   -14.69763   -4.90578   13.08874
       H   -14.14346  -10.96409   13.58126
       O   -13.91862  -10.29200   14.22041
      H1   -13.03126  -10.00734   14.01731

