138
frame 5 | Written by MDAnalysis XYZWriter (release 2.4.3)
       H    16.32529    9.53190   -6.63553
       O    15.85490   10.24099   -7.11138
      H1    15.20391   10.58757   -6.49094
       H    17.98858   15.28356   -5.46090
       O    17.25633   15.87719   -5.59938
      H1    16.41159   15.44196   -5.83498
       H    18.78098   17.24663   -8.13222
       O    17.85314   17.35053   -7.85698
      H1    17.79337   16.81749   -7.06771
       H    17.80283   15.93550  -13.17124
       O    17.04138   16.21876  -12.69655
      H1    17.05723   15.63838  -11.93331
       H    12.97987   12.01289   -4.77773
       O    13.35867   12.70969   -4.23171
      H1    12.73803   13.15851   -3.62752
       H    14.00003   11.53301  -11.63948
       O    14.70712   12.00512  -12.14846
      H1    14.39433   12.95268  -12.14381
       H    16.67227   11.64065  -11.98641
       O    17.55731   11.33095  -12.23005
      H1    18.14926   11.95063  -11.76457
       H    18.80555   14.43329    1.04555
       O    19.24014   15.13234    0.50567
      H1    18.54867   15.83121    0.39137
       H    15.07286   10.04108   -8.66326
       O    14.98889    9.79834   -9.59650
      H1    14.13086   10.17154   -9.89677
       H    15.11593   13.74576   -9.19344
       O    15.03357   13.62225   -8.27734
      H1    15.91901   13.38249   -7.95001
       H    16.45510   11.11752   -3.90003
       O    15.72201   10.54936   -4.21917
      H1    14.94038   10.60515   -3.63050
       H    12.73982   15.45783   -9.20685
       O    13.03316   15.91904  -10.00321
      H1    12.73767   15.23423  -10.58130
       H    15.54677   11.14824    0.91822
       O    16.24086   10.76704    0.41485
      H1    16.15937   11.44889   -0.29819
       H    14.74064   19.24309   -1.36701
       O    14.77669   19.35740   -2.29832
      H1    14.95905   18.46242   -2.70087
       H    19.19182   11.32061   -8.15023
       O    19.73409   10.50182   -8.27890
      H1    19.20349   10.14948   -9.01924
       H    11.74426   10.54729  -10.43300
       O    12.34012   11.32810  -10.46479
      H1    12.27920   11.68823   -9.52825
       H    10.80674   18.69208   -6.32529
       O    10.89250   18.31444   -7.20669
      H1    11.35373   17.48390   -6.93855
       H    16.25891   16.60639   -0.63301
       O    17.09613   17.03410   -0.32958
      H1    17.19564   17.82979   -0.85312
       H    16.43987   18.10898  -12.07417
       O    16.26665   18.94653  -11.63068
      H1    15.43575   18.80706  -11.20315
       H    11.90137   18.42937   -1.83729
       O    12.18401   18.99063   -2.55279
      H1    13.13241   19.12755   -2.50708
       H    17.98611   12.79879   -6.42469
       O    17.54520   12.45400   -7.16312
      H1    17.08328   11.65177   -6.93243
       H    16.79264   19.73067   -9.96765
       O    17.35371   19.93682   -9.21487
      H1    17.81294   19.12139   -8.90662
       H    12.72027   12.08004   -7.45278
       O    11.95621   12.01784   -8.05115
      H1    11.58340   12.90062   -8.01792
       H    10.15124   14.32502   -7.59841
       O    11.02916   14.67517   -7.64209
      H1    11.36537   15.09373   -6.80417
       H    14.23334   15.37833    0.03707
       O    14.04625   16.02878   -0.61126
      H1    13.52560   16.65199   -0.08982
       H    12.79346   15.13885   -1.64881
       O    12.56120   14.32901   -2.16018
      H1    11.64311   14.41249   -2.39947
       H    18.60994   12.84996   -9.90374
       O    18.93535   13.02558  -10.79226
      H1    19.13883   14.00612  -10.83401
       H    18.26379   12.75868   -3.59221
       O    17.82557   12.08952   -2.99110
      H1    17.46759   12.55952   -2.23772
       H    15.13029   15.80149  -10.17998
       O    16.06077   15.43143  -10.25819
      H1    16.30684   15.63157   -9.35278
       H    10.37941   16.44929   -1.85036
       O    10.79960   17.02426   -1.20685
      H1    10.13310   17.78983   -1.08128
       H    19.70365   16.26171  -11.69956
       O    19.65773   15.65879  -10.95276
      H1    19.91792   16.11117  -10.14035
       H     9.66287   15.14421   -3.53086
       O     9.88717   14.72070   -2.72058
      H1     9.16236   14.16268   -2.39407
       H    17.12103    9.42556  -10.13551
       O    18.01547    9.68921  -10.33319
      H1    17.87352   10.38473  -10.94983
       H    14.44272   13.94728   -5.29399
       O    14.88549   14.65240   -5.78076
      H1    15.03494   14.29566   -6.68422
       H    12.25764   10.51912   -6.31363
       O    13.12789   10.78211   -6.00927
      H1    13.53055   10.08650   -5.48955
       H     9.18721   15.91166   -5.67181
       O     9.81330   16.14988   -4.98762
      H1     9.68900   17.09591   -4.84753
       H    13.74310   19.89908   -5.09727
       O    13.99566   19.00773   -5.41848
      H1    13.24491   18.53747   -5.76714
       H    18.47099    9.38346   -3.32406
       O    17.95761    8.86260   -3.99846
      H1    17.16812    9.37865   -4.08786
       H    10.91227   19.20491   -3.93485
       O    10.21834   18.91465   -4.56705
      H1     9.73161   19.66607   -4.78315
       H    11.72774   12.61855    0.51838
       O    11.30907   12.74089   -0.37940
      H1    11.92683   13.28714   -0.91018
       H    12.80037   10.16178   -2.28790
       O    13.77836   10.13334   -2.34873
      H1    14.06374    9.30757   -1.94778
       H    14.89813   13.32815   -2.02471
       O    15.22404   12.55128   -1.65517
      H1    14.66793   11.82959   -1.96011
       H    17.44985   18.11393   -3.48374
       O    18.39566   18.10815   -3.22680
      H1    18.83539   18.51107   -3.96726
       H    15.15226   18.01979   -4.65987
       O    15.65792   17.41997   -4.09578
      H1    16.21501   16.91581   -4.68356
       H    19.89838   12.93372   -4.70455
       O    19.09784   13.47520   -4.78226
      H1    19.35433   14.23439   -4.25495
       H    13.25932   15.82111   -5.63690
       O    12.56641   16.44514   -5.81022
      H1    12.21214   16.56349   -4.91485

