138
frame 5 | Written by MDAnalysis XYZWriter (release 2.4.3)
       H   -16.57993   -4.87828   -2.20340
       O   -17.12123   -4.43036   -1.55740
      H1   -17.82665   -3.99924   -2.08804
       H   -15.96088  -12.56074   -0.39047
       O   -16.52201  -12.53391   -1.18891
      H1   -17.34021  -13.09464   -1.10377
       H   -15.99829   -8.52016   -2.80774
       O   -15.50437   -7.91319   -2.17695
      H1   -14.98059   -7.34571   -2.81989
       H   -15.34724   -8.71786    0.77871
       O   -15.22022   -7.85079    0.51908
      H1   -15.07806   -7.92781   -0.42035
       H   -17.60601   -4.86108    0.36664
       O   -18.05018   -5.09275    1.18931
      H1   -18.84138   -4.49303    1.18249
       H   -17.96744  -13.17830    2.30397
       O   -18.64570  -12.66013    1.94070
      H1   -18.35035  -11.77046    2.10618
       H   -10.20247   -9.70339    2.61382
       O   -10.70268   -9.48762    3.43372
      H1   -10.82921  -10.40866    3.80540
       H   -14.80114   -5.08524   -4.18070
       O   -15.54740   -4.45699   -3.98693
      H1   -16.28433   -4.70442   -4.63816
       H   -13.26887   -3.72233   -1.70683
       O   -12.40321   -4.01945   -1.53008
      H1   -11.92613   -3.31362   -1.01359
       H   -10.21962   -5.23252    3.61901
       O    -9.82278   -5.32009    4.47210
      H1    -8.86507   -5.27696    4.35956
       H   -15.15549   -7.52274    6.51302
       O   -15.30675   -8.23611    7.11451
      H1   -14.87873   -8.08813    7.92182
       H   -16.64205  -14.78517    3.01988
       O   -16.26426  -13.97353    2.55236
      H1   -16.12294  -13.35585    3.31093
       H   -10.85170  -12.42127   -0.88072
       O   -10.33006  -11.59797   -0.78991
      H1   -10.92245  -10.89524   -1.02489
       H   -12.82672   -3.42775    3.65664
       O   -12.64428   -2.60375    4.10901
      H1   -13.47509   -2.09919    4.44198
       H   -18.22851   -8.53171   -1.23819
       O   -18.45758   -7.58488   -1.01792
      H1   -17.71233   -7.10533   -1.37049
       H   -14.81918   -4.60479    1.66873
       O   -14.90628   -3.61704    1.58104
      H1   -14.79337   -3.43835    0.63861
       H   -11.22425  -11.58190    5.22124
       O   -11.25765  -11.90423    4.30704
      H1   -10.44691  -12.42381    4.17274
       H   -15.09308  -13.07354    1.35428
       O   -14.56252  -12.54449    0.75284
      H1   -14.12188  -11.92463    1.27141
       H   -18.58976  -10.05299    3.32713
       O   -18.31908   -9.97935    2.38959
      H1   -17.66724   -9.25809    2.34598
       H   -14.55869   -8.10642   -6.17087
       O   -13.99045   -8.63573   -5.58369
      H1   -13.19460   -8.58254   -6.14997
       H   -13.29232   -6.29608    3.75629
       O   -13.50013   -5.34028    3.94642
      H1   -13.51290   -5.18518    4.90974
       H   -12.03413  -10.46631   -5.85648
       O   -11.51307  -10.22922   -5.02474
      H1   -12.12813  -10.34345   -4.27102
       H   -19.78794  -13.50536   -1.64477
       O   -18.93443  -13.89516   -1.55726
      H1   -18.70296  -14.26582   -2.42381
       H   -18.77896  -10.62903    5.41787
       O   -19.25836   -9.94614    4.87360
      H1   -20.14326  -10.30837    4.75646
       H   -16.85012   -9.69586   -5.21557
       O   -16.63300   -9.78357   -4.24830
      H1   -17.49875   -9.81373   -3.78708
       H   -11.40791   -5.14051   -4.47021
       O   -11.08535   -5.54933   -3.61250
      H1   -11.39255   -4.94811   -2.93224
       H   -10.51615   -6.81928    5.27725
       O   -10.85039   -7.47590    5.93390
      H1   -10.97666   -8.25624    5.50376
       H   -17.32550  -10.64435   -1.43776
       O   -17.88159  -10.03541   -1.92390
      H1   -18.80182  -10.34861   -1.81728
       H   -13.54788   -9.81930    2.66140
       O   -13.48821  -10.80821    2.63782
      H1   -12.74890  -10.90874    3.27452
       H   -13.99866  -10.08313   -3.54749
       O   -13.36450  -10.57063   -2.99951
      H1   -13.91177  -11.39846   -2.84933
       H   -11.42957   -3.04455    1.03104
       O   -11.71989   -2.27902    0.51220
      H1   -12.50778   -1.83298    0.89597
       H   -11.29010   -4.96408    1.44885
       O   -10.60009   -4.62556    2.04641
      H1    -9.84485   -4.97880    1.57491
       H   -17.34762   -4.38036    4.30364
       O   -17.60592   -3.61764    3.73354
      H1   -17.46609   -3.94788    2.80039
       H   -16.09134  -11.31826   -3.82909
       O   -15.58226  -12.17198   -3.67838
      H1   -15.84716  -12.41038   -2.74767
       H   -15.11275  -12.03747    5.50302
       O   -15.64711  -12.74166    5.05729
      H1   -16.27867  -12.99823    5.77427
       H   -12.45051   -7.99042    2.47036
       O   -13.40573   -8.05875    2.54929
      H1   -13.75205   -7.66528    1.74420
       H   -13.65177   -7.48538   -4.29306
       O   -13.68871   -6.68604   -3.73324
      H1   -12.82505   -6.33275   -3.67791
       H   -12.31575  -14.03789   -1.36067
       O   -11.87524  -13.76338   -0.56642
      H1   -12.68855  -13.34511   -0.18600
       H   -17.88612   -6.64531    2.37629
       O   -17.12708   -6.98817    2.81683
      H1   -16.38851   -7.04113    2.14196
       H   -14.47310   -9.68727    6.51183
       O   -13.87954  -10.45239    6.54379
      H1   -13.03461  -10.10650    6.75030
       H   -13.73665  -13.91824    5.15157
       O   -13.32834  -14.53139    5.75342
      H1   -14.05418  -14.85588    6.26223
       H   -16.00356   -5.26823    5.41413
       O   -16.79535   -5.68996    5.07881
      H1   -16.53353   -6.11072    4.24781
       H   -18.51630   -5.71811    5.54267
       O   -19.43726   -5.59630    5.64790
      H1   -19.87395   -5.89929    4.82316
       H   -10.75023   -8.05641   -1.67167
       O   -11.42324   -8.20638   -0.96061
      H1   -12.25063   -8.41460   -1.39688
       H   -12.41831   -5.41902   -0.43985
       O   -12.11291   -5.95944    0.32662
      H1   -11.81686   -6.78786   -0.07113
       H   -15.78277   -3.21403   -1.17783
       O   -14.91672   -2.80337   -1.12750
      H1   -14.89165   -1.92122   -1.54147

