138
frame 4 | Written by MDAnalysis XYZWriter (release 2.4.3)
       H   -15.49607   11.43153    2.42169
       O   -16.35019   11.79170    2.06385
      H1   -16.14614   12.75527    2.03487
       H   -11.39215    9.10918    3.88862
       O   -12.18448    9.50222    4.27212
      H1   -12.83032    9.59873    3.52221
       H   -16.17373   11.57000    0.21560
       O   -16.32671   11.44878   -0.71672
      H1   -16.46314   12.29427   -1.09284
       H   -14.96333   12.79667   11.74856
       O   -15.74315   12.26322   11.93917
      H1   -16.32044   12.40520   11.15802
       H   -18.73549   11.25477    5.61321
       O   -18.83375   11.37547    6.55130
      H1   -18.18532   12.08770    6.69701
       H   -14.39944    9.68990    6.78679
       O   -14.04716   10.33359    7.43172
      H1   -13.35724    9.89903    7.91022
       H   -11.63067    9.11049    9.72552
       O   -11.80156    8.70208    8.88624
      H1   -12.18886    7.82897    9.10475
       H   -16.21501    7.77554   10.25555
       O   -15.40171    8.19406    9.90765
      H1   -15.04953    8.67891   10.66060
       H   -16.40008    9.44790    8.44591
       O   -17.23368    9.22517    8.01312
      H1   -17.45568    9.95532    7.46661
       H   -13.15637   16.18557    0.30141
       O   -13.85235   15.49939    0.36025
      H1   -14.44884   15.79305   -0.33876
       H   -14.90208   16.30752    9.08919
       O   -14.15705   16.72922    9.60419
      H1   -13.85749   16.05648   10.22859
       H   -13.64109   18.53087    3.38016
       O   -14.19640   18.87194    4.09178
      H1   -15.01265   18.32774    3.99374
       H   -17.15074   16.63956   10.39380
       O   -17.76557   17.38474   10.11638
      H1   -18.62905   17.02546    9.79031
       H   -19.10146   17.08150    2.52195
       O   -18.32333   17.67652    2.45314
      H1   -18.61751   18.48496    2.87241
       H   -11.27801    9.13613    7.24716
       O   -10.68437    9.65465    6.61885
      H1   -11.10584    9.71044    5.77919
       H   -11.49408   17.32887    1.90088
       O   -11.71287   17.90383    2.62299
      H1   -11.54227   17.32265    3.38141
       H   -16.14000   16.80089    6.92662
       O   -16.34441   17.60489    6.41246
      H1   -16.33422   17.38577    5.44069
       H   -15.36919   15.06997    1.40140
       O   -16.10208   14.62820    1.89942
      H1   -16.97672   14.97491    1.59792
       H    -8.78758   12.37195    2.71112
       O    -8.38798   11.65710    2.24547
      H1    -9.12591   11.50049    1.56496
       H   -12.85956   11.73179    1.76343
       O   -13.47068   11.03451    2.03125
      H1   -13.78799   10.53211    1.25590
       H   -12.27516   18.50273    6.76879
       O   -12.28332   19.22085    6.11562
      H1   -13.03024   19.01647    5.48151
       H   -15.03626   14.93802    7.16814
       O   -15.67980   15.31116    7.79737
      H1   -16.13726   14.57648    8.22351
       H   -10.03955   16.10458    4.88966
       O   -10.91880   16.50951    4.86623
      H1   -11.14465   16.88784    5.72758
       H   -14.03935   10.73589   11.60753
       O   -13.64376   10.47737   10.75592
      H1   -14.18568   10.91664   10.11761
       H   -10.01286   11.73250   11.37755
       O   -10.40954   12.35919   11.99233
      H1   -10.92328   12.79071   11.34654
       H   -19.41006    7.24401    3.82074
       O   -19.11105    8.12679    4.10184
      H1   -18.12193    8.01958    4.11863
       H   -10.65893   15.81452    7.79573
       O    -9.99048   15.08283    7.92208
      H1    -9.47105   14.99722    7.15970
       H   -16.87815   17.15957    3.30192
       O   -16.02386   17.12647    3.77483
      H1   -15.75081   16.24867    3.47922
       H   -17.65750   11.11829    3.18604
       O   -17.98890   10.79567    4.02421
      H1   -18.63287   10.12551    3.78828
       H   -10.48305   13.76079    3.73177
       O    -9.69160   14.11652    3.31981
      H1   -10.04474   14.38909    2.44052
       H   -11.94538   11.58723    4.38911
       O   -11.64207   12.44823    4.67461
      H1   -11.04697   12.33669    5.38727
       H   -18.79140   13.73686    8.43771
       O   -18.17936   13.84142    7.74611
      H1   -18.36349   14.69617    7.31744
       H   -12.67646   16.99410    8.39487
       O   -12.00329   17.00217    7.73863
      H1   -11.34528   17.67351    7.97410
       H   -17.24282    7.52354    7.34761
       O   -17.41969    6.63978    7.12577
      H1   -18.41844    6.64809    6.96120
       H   -13.02092   13.97119   10.76244
       O   -13.67654   14.42555   11.31617
      H1   -13.31724   14.54467   12.19287
       H   -11.85407   13.26330   -0.31222
       O   -12.62432   13.11317    0.26210
      H1   -13.17593   13.92270    0.32857
       H   -16.59256   11.22806    4.98121
       O   -15.95351   11.64436    5.55689
      H1   -15.14648   11.09953    5.59324
       H   -15.88951    6.67019    4.29930
       O   -16.34108    7.40984    3.89627
      H1   -16.00658    7.36540    2.96983
       H   -15.28509    8.06710    4.89071
       O   -14.71776    8.69816    5.39855
      H1   -13.82384    8.59058    5.04205
       H   -17.14940   14.31524   11.11418
       O   -16.51162   14.98458   10.78696
      H1   -15.60056   14.81616   11.07982
       H   -13.14176   13.49610    5.82666
       O   -13.95588   13.68308    6.40649
      H1   -14.64012   13.24818    5.87624
       H   -18.01647   16.76593    6.35925
       O   -18.73695   16.17276    6.41528
      H1   -19.31407   16.52744    7.11158
       H    -9.94231   12.51681    8.27182
       O    -9.73279   12.05779    7.43894
      H1   -10.17978   11.19278    7.41310
       H   -19.07271   12.47001   10.93944
       O   -18.79139   13.39529   10.78874
      H1   -18.97672   13.88555   11.60050
       H   -12.38290   13.35011    8.68027
       O   -11.99405   13.44856    9.58277
      H1   -11.57306   14.30594    9.53857
       H   -16.75352   12.78955    8.18534
       O   -15.98484   12.44007    8.61574
      H1   -15.44894   12.05052    7.89779

