138
frame 9 | Written by MDAnalysis XYZWriter (release 2.4.3)
       H   -17.76999    1.37099   10.61577
       O   -18.22789    1.06381   11.44796
      H1   -18.24085    1.80203   12.11405
       H   -16.73767    6.34005    9.68757
       O   -16.43092    6.60075   10.52033
      H1   -16.98065    7.34626   10.75344
       H   -16.23476    5.35989    7.24994
       O   -15.62857    5.12177    6.49833
      H1   -14.69510    4.99842    6.82446
       H   -16.57512    1.20208    5.46721
       O   -16.48898    0.50038    4.78409
      H1   -16.58529    0.97495    3.93163
       H   -18.28351   10.42358    7.54682
       O   -17.94392   10.45502    8.45279
      H1   -17.89805   11.41328    8.61689
       H   -16.71417    3.58879    6.44042
       O   -17.11222    2.77016    6.87067
      H1   -18.03001    2.96111    7.04901
       H   -13.25011   10.43496    6.66657
       O   -12.45193   10.45869    7.23711
      H1   -12.69201    9.98542    8.07176
       H   -11.66572    7.35533    8.55038
       O   -11.38485    6.52437    8.09062
      H1   -11.43112    6.67652    7.12123
       H   -13.27521    1.98543    9.50613
       O   -12.60917    2.41759    8.90031
      H1   -12.43081    1.67021    8.29655
       H   -14.75431    7.91270   10.05737
       O   -14.21299    8.38547   10.69866
      H1   -14.80798    8.97023   11.16715
       H   -16.75136    8.59775    6.54468
       O   -16.65755    8.39714    7.44743
      H1   -17.01929    9.20879    7.85214
       H   -18.03662    0.52202    2.41660
       O   -17.25413    1.06405    2.21703
      H1   -17.63166    1.95886    2.06324
       H    -9.74268    4.45677    4.78858
       O    -9.22393    4.55098    3.99218
      H1    -8.40266    3.98711    4.13021
       H   -11.25171    4.06188    6.66020
       O   -10.36166    3.75632    6.47596
      H1    -9.72956    4.14902    7.13550
       H   -14.97152    3.25392   12.50847
       O   -15.40621    3.64934   13.23934
      H1   -15.45954    4.57052   12.96065
       H   -18.42305    3.09174   14.32438
       O   -18.21005    3.39651   13.45117
      H1   -17.25472    3.53428   13.58420
       H   -16.75490    5.73445    3.32971
       O   -16.77121    4.95088    3.86544
      H1   -16.39302    5.28001    4.67774
       H   -11.10613    9.67529    6.36568
       O   -10.38074    9.27460    5.87198
      H1   -10.50672    9.43078    4.94344
       H   -14.85490    1.34337   11.44352
       O   -14.59710    2.10540   10.96575
      H1   -15.20883    2.05798   10.20889
       H   -16.96542    1.75625    8.42176
       O   -16.73645    1.39165    9.32315
      H1   -16.15164    0.60277    9.13247
       H   -14.46956   -1.52552    4.98978
       O   -14.18118   -0.68197    5.28873
      H1   -14.92039   -0.10644    4.97754
       H   -10.92036    7.71841    5.53449
       O   -11.48499    6.85662    5.49039
      H1   -12.39601    7.25872    5.37200
       H   -19.19372    7.08129    4.21599
       O   -19.03056    7.60103    5.03992
      H1   -18.05890    7.60160    5.15736
       H   -15.58511    3.79090    0.75456
       O   -15.70079    4.69987    0.45506
      H1   -15.16932    4.79010   -0.34707
       H   -13.24378    5.01631    2.86820
       O   -13.75134    5.81433    2.48004
      H1   -14.49365    5.34822    2.05836
       H   -15.60445    6.50813   12.05700
       O   -15.11998    6.42182   12.91576
      H1   -14.53117    7.16829   13.03930
       H   -11.96064   -0.49430    7.81122
       O   -12.83267   -0.02484    7.71891
      H1   -13.20180   -0.22890    6.89436
       H   -17.89973   12.28455    5.19747
       O   -18.59327   11.65062    5.47152
      H1   -18.69072   11.18094    4.62665
       H   -14.10629   -0.46956    8.66187
       O   -14.93677   -0.82724    9.08971
      H1   -15.08043   -1.58707    8.52948
       H   -12.22032    3.36255   11.24859
       O   -11.46325    2.99688   11.68894
      H1   -11.51917    3.24472   12.61094
       H   -18.88375    7.13603   12.63710
       O   -18.38321    7.85823   12.33111
      H1   -18.48084    8.42179   13.15266
       H   -17.24397   -1.15502    5.60125
       O   -17.68508   -1.97338    5.93759
      H1   -17.70271   -2.41005    5.09552
       H   -19.56728    3.57759    2.49071
       O   -18.60922    3.40192    2.38809
      H1   -18.13306    3.99493    3.03391
       H   -17.26924    6.75268    7.90035
       O   -17.39532    5.87065    8.25163
      H1   -18.39576    5.65865    8.16674
       H   -13.83877    6.35516    4.40463
       O   -14.16685    6.86824    5.14060
      H1   -14.65641    6.19352    5.66353
       H   -12.34390    8.28791   10.18971
       O   -11.62770    8.71455    9.64834
      H1   -10.84737    8.74247   10.21763
       H   -14.47805   13.34248    5.82585
       O   -14.81691   12.67569    6.42625
      H1   -14.90169   11.90514    5.81316
       H   -14.30702    7.59728    1.96100
       O   -14.91937    8.37833    1.92602
      H1   -15.50109    8.07745    1.20429
       H   -15.57949    7.72984    4.70156
       O   -16.41648    8.22035    4.69165
      H1   -16.72920    8.16072    3.81654
       H   -10.63874    3.85921    2.89337
       O   -11.47363    3.70208    2.43702
      H1   -11.53289    2.73847    2.46811
       H   -15.11850    9.68587    5.00078
       O   -14.40287   10.34727    5.06923
      H1   -13.92869   10.35788    4.21728
       H   -14.00446    2.16644    0.74033
       O   -14.53022    2.40856    1.50131
      H1   -15.06754    1.61541    1.59054
       H   -12.13803    6.26434    1.75398
       O   -11.55415    6.81727    1.23188
      H1   -10.67668    6.73097    1.64979
       H   -18.95419    9.67230    9.60749
       O   -19.62416    9.30452   10.26448
      H1   -19.13808    8.89857   10.99492
       H   -16.95454    6.02632    0.74644
       O   -17.39272    6.84073    0.97656
      H1   -17.37106    7.39606    0.19845
       H   -12.64290    5.30978    7.62670
       O   -13.15059    4.56987    7.26913
      H1   -13.07232    3.89573    7.97227

