138
frame 11 | Written by MDAnalysis XYZWriter (release 2.4.3)
       H   -16.35478   -1.27812  -10.00137
       O   -15.54736   -0.94752  -10.36378
      H1   -15.00529   -0.57364   -9.64318
       H   -11.36809   -0.60585  -10.21244
       O   -11.44970    0.23091   -9.72956
      H1   -11.74976    0.94997  -10.34226
       H   -17.62974    4.39406   -9.22797
       O   -17.71357    5.16533   -9.78096
      H1   -18.42299    4.94355  -10.42101
       H   -18.68951   -2.76224  -12.07914
       O   -18.25456   -3.33015  -12.76556
      H1   -18.99700   -3.82677  -13.20633
       H   -17.86309   -0.70781  -14.36478
       O   -17.17861   -0.86099  -13.68471
      H1   -17.23825   -1.74048  -13.29403
       H   -14.39043   -2.30032  -11.20164
       O   -13.82936   -3.02973  -11.40359
      H1   -14.27365   -3.38991  -12.21154
       H   -17.54633    2.04758   -9.83811
       O   -16.72818    2.53949   -9.82305
      H1   -16.91033    3.37993  -10.26393
       H   -15.76229   -2.05981  -16.00350
       O   -15.18419   -1.29072  -15.99192
      H1   -15.41779   -0.77592  -15.20256
       H   -16.40506   -4.14235  -12.62166
       O   -15.61462   -4.59118  -13.01034
      H1   -15.49102   -5.39796  -12.44597
       H   -15.21428    5.57678  -16.88021
       O   -15.46061    4.84067  -16.29333
      H1   -14.70805    4.20986  -16.49551
       H   -18.98038   -0.18771  -16.40816
       O   -18.85704   -1.16867  -16.15517
      H1   -17.97989   -1.43839  -16.34950
       H   -19.86236   -2.17811  -10.77220
       O   -18.94572   -1.92757  -10.45651
      H1   -18.55338   -2.81341  -10.11319
       H   -15.69551   -4.02756   -8.39247
       O   -15.42861   -4.72931   -9.02145
      H1   -14.78771   -4.31199   -9.59308
       H   -18.68361    2.15435  -16.94899
       O   -19.10413    1.30640  -17.14478
      H1   -18.84373    1.19803  -18.07686
       H   -14.64251    2.61046   -9.82203
       O   -13.85662    2.82121  -10.27453
      H1   -13.20710    3.12136   -9.64502
       H   -14.76131    7.91018  -11.43796
       O   -13.99969    8.02936  -11.94665
      H1   -13.89981    8.96897  -12.12048
       H   -18.07004   -4.80186  -10.92255
       O   -18.05996   -4.35397  -10.08021
      H1   -17.33604   -4.55658   -9.47004
       H   -13.90410    1.13048   -7.93779
       O   -13.80296    0.22888   -8.17292
      H1   -12.98292    0.21651   -8.66266
       H   -10.14033    5.28517  -13.81536
       O    -9.75172    6.03084  -14.30882
      H1    -9.17266    5.72520  -15.03330
       H   -13.43308   -1.45060  -15.24262
       O   -12.46273   -1.46957  -15.26418
      H1   -12.14784   -1.05937  -14.44631
       H   -11.32707    4.98436  -11.86022
       O   -11.21125    4.42583  -12.62837
      H1   -12.09376    4.19186  -13.01290
       H   -15.44658    5.56748  -14.54051
       O   -15.43167    5.79654  -13.59112
      H1   -14.59935    6.28246  -13.35230
       H   -15.53513    6.64609   -9.55595
       O   -15.94774    7.28187  -10.19795
      H1   -16.67371    6.88296  -10.65829
       H   -13.96238    6.28075   -7.82465
       O   -14.08344    5.50972   -8.45019
      H1   -13.28382    5.51020   -8.98175
       H   -15.29336    0.08162  -18.59619
       O   -14.43849   -0.20803  -18.32949
      H1   -14.63843   -0.70198  -17.50249
       H   -10.45005    3.01651  -12.05920
       O    -9.85744    2.29548  -11.72088
      H1    -9.02425    2.45421  -12.18369
       H   -14.05165    3.05633   -6.38535
       O   -14.42105    2.76296   -7.19937
      H1   -14.60096    3.56762   -7.70981
       H   -11.50877    6.19115  -10.09496
       O   -11.54929    5.25947   -9.80232
      H1   -10.89522    5.11827   -9.12056
       H   -12.42537   -3.14708  -16.39114
       O   -12.41516   -3.92284  -16.97041
      H1   -12.66890   -3.64427  -17.85435
       H   -16.56786    1.71305  -11.29522
       O   -16.89596    1.51429  -12.24519
      H1   -16.82099    0.50356  -12.21648
       H   -17.18540    6.47856  -12.71455
       O   -17.75976    6.88487  -12.07906
      H1   -18.58165    6.40732  -12.00350
       H   -14.03432    4.58717  -19.46247
       O   -13.39921    3.97595  -19.12481
      H1   -12.66644    4.04868  -19.72090
       H   -14.52682    4.33229  -13.34168
       O   -13.84672    3.62228  -13.30583
      H1   -13.99339    3.26974  -12.41712
       H   -16.86994   -4.41948  -16.67062
       O   -16.56328   -3.80842  -15.91848
      H1   -16.52769   -4.37117  -15.14436
       H   -11.30799    0.88834  -12.79280
       O   -11.86875    0.18603  -13.14917
      H1   -12.62848    0.74054  -13.47556
       H   -11.20823   -2.77031   -9.42002
       O   -11.00108   -2.92368  -10.32142
      H1   -11.86943   -2.73525  -10.70147
       H   -10.45255   -1.22703  -16.85271
       O   -10.94224   -0.56797  -17.41304
      H1   -11.89575   -0.64510  -17.18345
       H   -12.63264    3.50771  -17.41326
       O   -12.69150    3.51811  -16.44742
      H1   -12.31356    4.37544  -16.13151
       H   -18.35131    3.84850  -15.83986
       O   -17.96685    3.78013  -16.72867
      H1   -17.02339    4.08870  -16.67380
       H   -10.74926    2.47730  -16.22484
       O    -9.93023    2.06466  -16.57483
      H1   -10.14279    1.16867  -16.90713
       H   -12.44997    6.32903  -15.35858
       O   -11.75078    5.76902  -15.78502
      H1   -10.89940    5.88561  -15.37366
       H   -20.03440    1.65732  -12.57048
       O   -19.26898    1.42404  -13.16897
      H1   -18.44214    1.46400  -12.69299
       H   -15.60511    1.30663  -13.48994
       O   -14.89944    1.20272  -14.14673
      H1   -14.58555    2.08710  -14.28820
       H   -13.22520    8.32015  -16.09620
       O   -13.86798    7.59872  -16.03293
      H1   -14.71288    8.02617  -15.97014
       H   -12.85235   -2.52336  -19.71624
       O   -13.74584   -2.65856  -19.45440
      H1   -14.05335   -1.77565  -19.15243
       H   -20.05379    4.06206  -14.23216
       O   -19.06593    3.95316  -14.18844
      H1   -19.01087    3.01539  -13.90580

