138
frame 9 | Written by MDAnalysis XYZWriter (release 2.4.3)
       H    -5.95182    9.83014  -17.89235
       O    -6.86186    9.98222  -18.23070
      H1    -7.00657   10.93383  -18.37710
       H    -4.43211    5.37126  -17.29652
       O    -4.86315    5.70191  -16.49813
      H1    -4.30849    5.53340  -15.69832
       H     3.07074    4.85044  -11.19440
       O     2.89446    4.30207  -10.35758
      H1     3.74572    4.20260   -9.90542
       H     0.89170   12.48764  -12.02973
       O     0.10268   12.68723  -11.56564
      H1    -0.47490   11.93618  -11.58498
       H     1.33592   14.21727  -13.22856
       O     1.94778   13.50855  -13.48542
      H1     1.57627   13.11671  -14.31547
       H     0.65261    6.82336  -14.24902
       O     0.03869    7.13219  -13.55885
      H1    -0.32563    6.38999  -13.11852
       H    -2.97611    6.96728  -11.29743
       O    -3.69383    6.42246  -10.96628
      H1    -4.28903    6.26282  -11.73330
       H    -4.76835   13.19336  -15.31768
       O    -5.00775   12.39602  -15.80225
      H1    -4.91916   11.64686  -15.22219
       H    -4.65852    7.67499  -17.32425
       O    -4.65401    8.51812  -17.81103
      H1    -4.15316    9.28470  -17.38712
       H    -2.14486   13.19094  -13.98861
       O    -1.40607   13.79652  -13.71093
      H1    -1.09748   13.34884  -12.92277
       H    -5.81795    6.29354  -13.27896
       O    -5.24526    5.63537  -12.84122
      H1    -4.60891    5.31904  -13.52022
       H    -1.99602    7.36964  -15.84731
       O    -2.52296    7.36266  -14.99338
      H1    -3.45050    7.73270  -15.04218
       H     1.64016    9.19984  -10.61620
       O     1.73430    8.70852  -11.41297
      H1     0.85590    8.61942  -11.85244
       H     1.67211    2.97314  -16.12246
       O     1.12516    3.75404  -15.89869
      H1     1.11243    3.79210  -14.87661
       H    -1.47189   10.83896  -15.03179
       O    -1.16715   11.29154  -15.80037
      H1    -2.02236   11.23272  -16.37145
       H    -0.49044    4.47690  -17.94547
       O     0.08783    5.06357  -18.45404
      H1     0.95687    4.69425  -18.38855
       H     7.43598    9.43800  -16.83813
       O     8.37271    9.06261  -16.84625
      H1     9.02658    9.73802  -17.02987
       H     4.87089   14.11712  -13.11781
       O     4.75181   13.37929  -12.48722
      H1     3.80428   13.18194  -12.45243
       H     2.74767    7.00458  -11.92302
       O     3.19809    6.34543  -12.42461
      H1     2.73519    6.39994  -13.27760
       H     5.23054    5.68213  -13.08344
       O     5.57873    5.23284  -13.81068
      H1     6.43319    4.84983  -13.62078
       H    -4.14850    5.92913  -19.60167
       O    -4.16645    5.06031  -19.19245
      H1    -3.91069    4.45957  -19.91525
       H    -1.38518    9.83198  -10.31714
       O    -1.77410   10.38715  -11.04299
      H1    -2.32423   11.07799  -10.53156
       H     3.16104    6.75878  -15.33691
       O     2.29572    6.29336  -15.27312
      H1     2.26188    5.41203  -15.71890
       H    -0.14440   12.88922  -19.40776
       O     0.29007   13.56786  -18.87930
      H1    -0.33383   13.78527  -18.17823
       H     1.79906    2.76982  -11.95175
       O     1.45347    2.95572  -12.82258
      H1     0.57525    2.49991  -12.94996
       H     0.63036    8.59544  -16.28043
       O     0.89291    7.96471  -16.93991
      H1     1.32239    7.21534  -16.47798
       H     2.28878    9.48530  -17.64972
       O     2.95771    9.67116  -18.35433
      H1     3.76036    9.52721  -17.86075
       H     4.18794   13.17279  -17.34616
       O     4.89041   13.17489  -16.68622
      H1     4.79365   12.31451  -16.23247
       H     5.41714    4.32474  -15.45242
       O     5.12592    3.67526  -16.10490
      H1     5.99619    3.40660  -16.41647
       H    -1.46651    2.79187  -17.30475
       O    -1.51211    3.60884  -16.75921
      H1    -0.70453    3.55098  -16.26273
       H    -2.41547    5.22364  -14.69926
       O    -3.13215    4.58940  -14.58285
      H1    -2.98785    3.94208  -15.28687
       H    -1.19497   14.50609  -16.05014
       O    -1.13283   14.80794  -16.95781
      H1    -2.00883   14.84905  -17.33860
       H     6.08644   12.50911  -19.10658
       O     5.64297   11.64306  -19.08429
      H1     6.20941   11.01842  -19.58549
       H     3.88212    4.03605  -17.85079
       O     3.31685    3.46628  -18.39383
      H1     3.07996    3.98840  -19.13403
       H    -2.30168    6.42348  -18.27449
       O    -1.79829    6.95061  -17.66227
      H1    -0.88148    6.77764  -17.92512
       H     1.72351   12.13556  -16.28414
       O     1.40267   11.91265  -15.36258
      H1     0.47113   11.84402  -15.56129
       H     5.43785   12.30156  -13.79286
       O     5.73244   11.47386  -14.25862
      H1     5.78079   10.67840  -13.69370
       H    -3.37525    9.68582  -14.04378
       O    -4.29171    9.88319  -14.40202
      H1    -4.86192    9.13351  -14.14546
       H     6.17925    8.59857  -18.24250
       O     5.81149    9.33941  -17.70906
      H1     5.89965   10.23050  -18.15995
       H     5.37495    8.58175  -13.33388
       O     6.11095    8.99936  -12.89948
      H1     5.75376    9.36853  -12.05348
       H    -1.25612    8.79802  -13.72777
       O    -1.58895    9.65909  -13.54686
      H1    -1.43572    9.79428  -12.59934
       H     1.55907   12.75110  -18.33282
       O     2.30160   12.29906  -17.91257
      H1     2.45929   11.40910  -18.34158
       H     6.83192    6.45229  -19.45358
       O     6.91041    7.29281  -19.03757
      H1     7.69456    7.19475  -18.48110
       H     2.37149   10.83504  -14.06615
       O     2.65733    9.99161  -13.74604
      H1     2.19379    9.75249  -12.89216
       H     5.15474    8.54863  -15.59716
       O     4.30183    8.31572  -15.32871
      H1     3.79871    9.09460  -14.96611
       H    -3.50196   10.82686  -18.20814
       O    -3.47871   10.87698  -17.24076
      H1    -4.11148   11.62141  -17.01409

