138
frame 1 | Written by MDAnalysis XYZWriter (release 2.4.3)
       H    16.78194    4.28580    5.91457
       O    17.35202    3.78419    6.46739
      H1    16.81073    3.69391    7.27138
       H    16.13343    6.25006    4.25952
       O    16.68566    5.46489    4.02135
      H1    17.62099    5.82940    4.24901
       H    10.72957   -1.47406   -0.34249
       O    11.27240   -1.23389   -1.08486
      H1    11.74608   -2.02030   -1.35236
       H    14.97934    4.80886    2.08847
       O    15.20267    4.33601    1.25288
      H1    15.24888    3.40532    1.52107
       H    15.13326    3.05972    8.49866
       O    16.08317    3.18883    8.73087
      H1    16.08059    4.09576    9.11422
       H    18.50499    0.17437    2.60344
       O    18.77482    0.85353    1.96192
      H1    19.43314    1.39420    2.40258
       H    14.74672    3.20682   -3.62161
       O    15.23983    3.90107   -3.20668
      H1    15.51419    4.37896   -3.99708
       H    12.08266    2.86500   -1.04001
       O    12.07428    3.83152   -1.00593
      H1    13.00245    4.20208   -1.12210
       H    13.31729    1.50094    5.81464
       O    13.72064    1.79290    5.00396
      H1    13.56911    2.71749    5.09590
       H    12.96549    5.52214    4.81568
       O    12.90306    4.82127    4.13639
      H1    11.97671    4.68404    4.01880
       H    15.64416    0.94575    2.24855
       O    16.10281    1.61223    1.79599
      H1    17.05178    1.33700    1.89303
       H    18.33153   -4.18845   -1.00059
       O    17.79665   -4.14420   -1.78474
      H1    17.32753   -3.30136   -1.68325
       H    15.79369   -0.65872   -2.63821
       O    16.45872   -1.00233   -2.01119
      H1    16.94814   -0.22043   -1.70412
       H    13.98066   -4.16933    6.38777
       O    14.44654   -3.52942    6.93779
      H1    15.38851   -3.59665    6.59978
       H    15.47852    1.36234    0.40154
       O    15.09397    1.52066   -0.50103
      H1    15.64479    2.21862   -0.90957
       H    17.68075   -0.04322    4.90776
       O    18.15845   -0.87015    4.67986
      H1    17.76826   -1.20021    3.89920
       H    18.93930    2.25959    8.46484
       O    19.20075    3.18322    8.38596
      H1    18.65090    3.43014    7.62351
       H    10.44251   -0.55890    1.46137
       O    10.06315   -1.42336    1.32655
      H1    10.64187   -2.07344    1.82620
       H    16.92611   -2.28900    5.56162
       O    16.92661   -3.26011    5.79336
      H1    17.69493   -3.35324    6.39234
       H    15.78561   -0.49668    7.11335
       O    15.18962   -0.75586    7.77402
      H1    14.90471   -1.62623    7.47498
       H    10.68974    4.92168    1.52090
       O    10.34188    4.05514    1.22767
      H1    10.82630    3.80965    0.45964
       H    18.60646    0.21013    7.86048
       O    17.98186    0.77971    8.38168
      H1    17.20366    0.68207    7.83644
       H    14.78350   -3.92783    0.85752
       O    14.72524   -2.92158    0.90977
      H1    15.13346   -2.68761    0.08463
       H    13.39173    1.02341   -0.91035
       O    12.45904    1.14977   -1.22736
      H1    12.07207    0.28394   -1.09640
       H    19.56431   -3.02075    4.22577
       O    18.95644   -3.68748    3.82316
      H1    18.18001   -3.48612    4.36292
       H    12.62686   -4.00007    2.21049
       O    12.00427   -3.32585    2.51333
      H1    11.40261   -3.67601    3.18476
       H    11.42511    1.09161    2.30924
       O    10.58103    1.40714    1.98238
      H1    10.59328    2.39599    2.01762
       H    12.28754   -1.50403    2.98841
       O    12.41594   -0.54476    3.02416
      H1    12.22121   -0.14903    3.89936
       H    14.58625    7.88682    3.58773
       O    14.90593    7.68525    4.46922
      H1    14.18107    7.27098    4.94797
       H    19.16397    1.15792   -0.80593
       O    18.43838    1.15718   -1.40809
      H1    18.42789    2.04145   -1.82446
       H    12.49673    2.87970   -4.17135
       O    12.81013    1.93651   -3.93574
      H1    12.55859    1.59786   -3.04969
       H    18.85410    5.30501   -2.57261
       O    19.14571    6.03650   -1.98369
      H1    19.30362    6.81341   -2.49842
       H    16.76969   -2.93119   -4.42910
       O    17.52132   -2.42544   -4.22925
      H1    17.11965   -1.70249   -3.70241
       H    17.22605    3.44983   -3.18901
       O    18.12264    3.50327   -2.82459
      H1    18.74512    2.88572   -3.16721
       H    19.40947   -1.62797    7.59735
       O    19.57778   -0.85493    7.06962
      H1    19.14973   -1.06044    6.26118
       H    15.42876   -1.30576    2.28862
       O    15.03598   -0.60282    2.85569
      H1    14.10751   -0.82676    2.85364
       H    17.91213   -1.13473    1.56826
       O    17.60709   -1.78962    2.22453
      H1    18.36556   -2.33108    2.47917
       H    17.58199    4.37513    0.74348
       O    18.12249    4.70664    1.48188
      H1    17.45125    4.72777    2.18108
       H    19.00349   -1.92980   -2.83994
       O    19.61819   -1.34506   -2.41926
      H1    19.13301   -0.60391   -2.14218
       H    16.74746    1.96893    5.78998
       O    16.51207    1.02085    5.77153
      H1    15.69055    1.04304    5.27910
       H    14.07961    0.52302   -4.04521
       O    14.77861   -0.15162   -4.10815
      H1    14.42766   -1.07274   -4.12065
       H    16.28621    7.52282   -0.20638
       O    15.47017    7.97188   -0.36263
      H1    14.84203    7.31818   -0.71016
       H    12.55869    2.74679    7.91270
       O    13.39606    2.28948    7.97045
      H1    13.20346    1.58096    8.61650
       H    14.87995    5.12514   -1.58622
       O    14.34094    5.59562   -0.96314
      H1    14.58627    5.19092   -0.14350
       H    18.13960    6.43241    0.78700
       O    18.23965    7.25410    0.33796
      H1    18.50407    6.96506   -0.54686
       H    10.42240    2.13521    4.53889
       O    10.51231    3.00097    4.89584
      H1     9.59566    3.33639    4.92474

