138
frame 5 | Written by MDAnalysis XYZWriter (release 2.4.3)
       H     1.78607   15.83209   -1.64028
       O     0.87192   15.62864   -1.38409
      H1     0.29900   15.79718   -2.11717
       H    -1.87399   12.85316    3.16990
       O    -1.99396   13.74134    2.83491
      H1    -2.81491   13.75671    2.33586
       H     2.13520   19.44095   -0.10907
       O     2.12122   19.23467    0.85766
      H1     1.29512   18.76475    1.05154
       H    -4.75363   18.46550    5.01937
       O    -5.62811   18.10031    4.80340
      H1    -5.54569   17.70456    3.92454
       H    -5.57128   13.02261    8.65026
       O    -5.36633   13.83656    9.14454
      H1    -6.24102   14.24169    9.32433
       H     3.45789   20.10499    4.51851
       O     3.53588   19.10447    4.65938
      H1     3.52501   18.65365    3.78218
       H    -9.77158   17.67479    4.21045
       O    -8.98267   17.75072    4.71488
      H1    -8.22429   17.48050    4.10408
       H    -2.51113   16.36984    8.56986
       O    -1.58013   16.53399    8.18814
      H1    -1.49010   15.81357    7.51729
       H     3.60029   18.43674    6.57545
       O     3.36562   18.28204    7.45116
      H1     2.42606   18.60859    7.48866
       H     3.63008   17.35205   12.81303
       O     2.67615   17.45421   12.90620
      H1     2.17291   16.65894   12.63938
       H     2.61448   15.20385    6.75541
       O     3.08370   15.70408    7.48266
      H1     3.13072   16.64955    7.34285
       H     0.92436   18.45021    4.41313
       O     0.79278   17.48064    4.57318
      H1     1.23924   17.29720    5.40987
       H     4.70070   14.65260    1.81793
       O     4.79130   15.41111    1.22730
      H1     4.56209   16.18878    1.76286
       H    -0.48284   12.37953    8.19796
       O    -0.03967   13.22435    8.47508
      H1    -0.19204   13.82653    7.68587
       H     2.41275   13.24422    5.31557
       O     1.92331   13.54708    6.07078
      H1     2.07693   12.77240    6.66377
       H    -0.41083   14.70375    2.43198
       O     0.39660   15.25559    2.52738
      H1     0.23118   15.91562    3.20328
       H    -0.04387   13.47029    0.93284
       O    -0.18242   13.55423   -0.02918
      H1     0.12980   14.46846   -0.19548
       H    -7.36620   18.65510    6.64768
       O    -7.33754   18.02410    7.42651
      H1    -7.98803   17.36185    7.11932
       H    -5.28591   14.16652    1.93446
       O    -4.58557   14.59953    1.43572
      H1    -4.79562   15.54270    1.28538
       H    -5.74372   12.83369    3.79942
       O    -5.94667   12.76742    2.85505
      H1    -6.87180   12.51939    2.81199
       H    -1.00409   18.39825    1.41751
       O    -0.34945   17.98315    0.81563
      H1    -0.19793   17.07829    1.07885
       H    -0.05906   17.61832   10.68943
       O     0.22020   17.18934    9.91685
      H1    -0.55755   16.80570    9.44158
       H    -1.29835   14.81197    5.42256
       O    -0.68218   14.63690    6.17957
      H1     0.03812   14.11621    5.77153
       H     0.89264   15.87764   11.11799
       O     1.08710   15.35475   11.90966
      H1     0.50771   14.56675   11.93126
       H    -3.40437   16.67647   11.48915
       O    -3.23537   17.23126   12.25085
      H1    -2.49056   17.85223   12.09498
       H     2.45771   14.84552   10.85332
       O     3.21198   14.85791   10.25169
      H1     2.96620   15.22530    9.40728
       H    -1.11447   11.48353    4.64712
       O    -0.53776   11.67488    3.85263
      H1    -0.67577   10.89739    3.27438
       H    -1.33374   19.71445   12.49465
       O    -1.66842   19.26970   11.67532
      H1    -1.52183   19.80466   10.92896
       H     0.57959   12.10808   10.89511
       O    -0.05322   12.69518   11.35850
      H1    -0.57901   12.96606   10.59804
       H    -3.16482   11.95457    0.91492
       O    -2.89611   12.25570    0.04263
      H1    -2.46750   13.07229    0.26571
       H    -2.05337   18.02797   -0.32758
       O    -2.66282   18.65993   -0.74165
      H1    -3.39551   18.89263   -0.11187
       H    -5.07138   20.07300   10.81515
       O    -5.82388   19.45341   10.94689
      H1    -5.58452   18.83319   10.20371
       H    -4.22475   15.26344    9.67507
       O    -3.60438   15.99079    9.81485
      H1    -4.00074   16.78862    9.38482
       H     0.77535   18.39786    8.86895
       O     0.86814   19.15445    8.27623
      H1     0.30975   18.98204    7.47021
       H    -6.51800   17.07328    1.95956
       O    -5.50642   17.26532    2.14289
      H1    -5.33902   18.04393    1.63961
       H     5.26796   17.82201    1.95200
       O     4.30820   17.89381    2.19585
      H1     3.84385   18.40891    1.54128
       H     5.94618   13.27265    6.01396
       O     5.97435   14.22173    6.11259
      H1     5.16169   14.56055    6.50915
       H    -2.50513   11.02000    6.15000
       O    -3.04362   11.24023    5.40008
      H1    -3.75962   11.90389    5.58933
       H     0.96005   12.52225    3.62931
       O     1.70364   12.98598    3.23549
      H1     1.40565   13.87352    3.00334
       H    -0.73514   18.11195    5.81785
       O    -1.16632   18.59879    6.48478
      H1    -1.43263   17.82375    7.03291
       H    -4.18044   18.96837    8.69280
       O    -4.66066   18.13467    8.56923
      H1    -5.35626   18.31979    7.97205
       H    -5.95799   16.76019    6.48302
       O    -5.56835   15.90410    6.46728
      H1    -5.60100   15.50414    7.36626
       H     2.94851   12.67016    9.88484
       O     3.46197   11.86697    9.66795
      H1     2.97611   11.09745   10.00511
       H     5.51058   18.46157    4.20941
       O     6.43697   18.59725    4.48436
      H1     6.66665   19.47314    4.22346
       H    -4.08032   15.71470    5.39491
       O    -3.34840   15.07381    5.24198
      H1    -3.18321   15.11707    4.32985
       H    -4.89291   13.70963    5.69033
       O    -5.29008   12.84010    5.44815
      H1    -5.53320   12.38316    6.27348

