138
frame 3 | Written by MDAnalysis XYZWriter (release 2.4.3)
       H    11.67363   -2.16215   -0.23780
       O    11.52586   -2.02732   -1.24841
      H1    11.92364   -2.80977   -1.62354
       H    13.14782  -10.47478   -0.35559
       O    12.71345   -9.67596   -0.52701
      H1    12.01455   -9.98591   -1.19850
       H     9.96908   -5.48946  -10.09118
       O    10.82500   -5.38565   -9.53734
      H1    11.24291   -6.19842   -9.81842
       H    13.54824   -4.72234   -4.15316
       O    14.25373   -5.38802   -4.12345
      H1    13.99528   -6.17537   -4.66487
       H    14.60825   -3.98486   -1.87465
       O    13.73475   -4.09860   -1.45270
      H1    13.21687   -4.64859   -2.04065
       H    11.76838   -0.76337   -7.48199
       O    12.19159   -1.54781   -7.80483
      H1    12.39834   -1.40746   -8.67530
       H    15.64634  -11.76733   -4.11126
       O    15.45636  -11.59441   -3.18046
      H1    15.25073  -10.68198   -3.00510
       H    18.88291   -6.50611   -0.79985
       O    18.17060   -5.86738   -1.02889
      H1    18.49014   -4.99150   -0.59987
       H    17.18912   -1.39314   -1.84933
       O    17.64596   -0.95948   -2.55596
      H1    17.64504   -0.02396   -2.30016
       H    10.62222   -4.88533    0.48570
       O     9.82880   -4.85750   -0.07890
      H1    10.21252   -4.91906   -1.01175
       H    18.07518   -5.61510   -2.86524
       O    18.26628   -5.53164   -3.82717
      H1    17.55329   -4.89483   -4.08566
       H    11.84592   -1.79595    2.36807
       O    11.62063   -2.06438    1.46484
      H1    11.79533   -3.04813    1.60522
       H    13.93950   -9.19839   -1.64842
       O    14.50037   -8.99218   -2.42424
      H1    15.14165   -8.32575   -2.23033
       H    12.07673  -11.46801   -4.81259
       O    11.62816  -10.65329   -5.05962
      H1    10.81070  -10.78914   -5.59429
       H     8.23164   -7.26193   -1.00570
       O     8.60841   -7.03027   -1.87509
      H1     8.86640   -7.94032   -2.25808
       H     9.25431   -7.75514   -5.05579
       O    10.06053   -8.15093   -5.44032
      H1     9.82812   -8.27966   -6.34272
       H    15.99552   -3.75910    0.57745
       O    15.17549   -3.39189    0.93132
      H1    14.62937   -3.60032    0.21197
       H    12.07504   -8.40913   -4.88361
       O    12.60129   -7.82420   -4.30102
      H1    13.07009   -8.40776   -3.68890
       H    10.82330    0.66878   -3.71271
       O    10.09207    1.03006   -3.12266
      H1     9.34893    0.99406   -3.71997
       H    12.35596   -8.82472   -9.37401
       O    12.28030   -7.86669   -9.14463
      H1    12.92778   -7.56935   -8.44797
       H    10.15847   -4.47938   -8.23275
       O     9.63853   -3.85503   -7.62568
      H1     8.77977   -4.31746   -7.41879
       H    13.26714    0.78331   -1.64299
       O    13.24834    0.05327   -2.27414
      H1    12.70197   -0.63715   -1.76243
       H    14.64267   -3.73902   -7.68094
       O    14.52197   -4.66337   -7.47505
      H1    13.59154   -4.74413   -7.17991
       H    13.56553   -7.55358   -5.94061
       O    14.22304   -7.58050   -6.65896
      H1    14.43862   -6.66499   -6.97161
       H    12.69420   -5.52437    1.67271
       O    12.09129   -4.78151    1.93729
      H1    11.70110   -5.00855    2.78673
       H    17.70558   -6.95144   -6.80916
       O    18.37814   -6.42465   -7.22901
      H1    18.90744   -6.06824   -6.51373
       H    16.17374   -1.76271   -8.30125
       O    15.42221   -1.36608   -8.69258
      H1    15.21510   -1.91721   -9.46262
       H    13.16994    2.80987   -4.42382
       O    13.22800    1.87881   -4.50555
      H1    13.20808    1.58356   -3.61728
       H    15.71242   -4.35920   -4.68316
       O    16.42945   -3.75964   -4.92012
      H1    16.27481   -3.00945   -4.39375
       H    14.04845   -7.51957    1.91057
       O    13.86580   -6.83073    1.31264
      H1    14.49266   -6.85552    0.60285
       H     8.50805   -2.41532   -1.73909
       O     8.79890   -2.42379   -2.65367
      H1     9.74833   -2.17782   -2.46627
       H    12.09359   -3.32584   -4.97220
       O    12.63701   -2.57695   -5.21839
      H1    12.34841   -2.37393   -6.11994
       H    18.76241   -8.97280   -3.26225
       O    18.43394   -8.36579   -3.91312
      H1    18.31441   -7.54887   -3.38207
       H    15.82217    0.23745   -5.10880
       O    16.57765    0.70349   -4.67483
      H1    16.74171    0.09995   -3.91352
       H    11.46654   -5.84740   -2.20753
       O    11.30892   -4.93319   -2.42340
      H1    10.99432   -5.00310   -3.33907
       H    14.29610   -1.19065   -2.79080
       O    14.81808   -1.82359   -3.35399
      H1    14.20536   -1.66461   -4.17090
       H    14.66445   -0.05766   -7.38015
       O    14.50688    0.60207   -6.71766
      H1    13.53294    0.66423   -6.82337
       H    15.70961   -8.67376   -6.29493
       O    16.48330   -9.22021   -6.13221
      H1    16.75422   -8.94358   -5.24122
       H    16.60043   -6.92340   -0.61352
       O    15.84190   -7.45178   -0.71197
      H1    16.08752   -8.26063   -0.27605
       H    10.19988   -7.00997   -8.29752
       O     9.33189   -7.37757   -8.05143
      H1     8.95594   -7.82944   -8.85826
       H     7.84104   -0.27582   -4.13463
       O     8.12646   -0.98275   -4.77325
      H1     8.56202   -1.65347   -4.24448
       H    10.63165   -4.37539   -6.11069
       O    11.05645   -4.81423   -5.37290
      H1    10.69219   -5.70514   -5.33750
       H    17.43392   -2.78998   -6.51796
       O    17.54243   -2.65367   -7.49438
      H1    17.32673   -3.52955   -7.88598
       H     7.58352   -5.77979   -4.95871
       O     7.82968   -6.61082   -4.54317
      H1     8.00292   -6.40957   -3.64378
       H    16.30511   -5.19597   -9.81559
       O    16.73033   -4.36129   -9.91095
      H1    16.11192   -3.90959  -10.52024
       H     9.77798  -10.05696   -2.55999
       O     9.19370   -9.40584   -3.03037
      H1     9.51499   -9.38120   -3.92543

