138
frame 11 | Written by MDAnalysis XYZWriter (release 2.4.3)
       H   -18.64230    1.16296   10.26296
       O   -19.56206    1.23969   10.49282
      H1   -19.77375    1.94753    9.85061
       H   -17.13499    7.41757    8.99921
       O   -16.64614    7.75652    9.79434
      H1   -17.23713    7.47377   10.53042
       H   -16.23416    5.20625   19.17130
       O   -15.37990    5.78575   19.24632
      H1   -15.17322    6.17446   18.37034
       H   -10.25246    6.27504   12.80253
       O   -10.45803    5.77842   13.60175
      H1   -11.19919    5.25156   13.35239
       H   -19.69584    4.97920   11.31380
       O   -18.73966    4.77559   11.33400
      H1   -18.70850    3.95515   11.83936
       H   -13.51961   10.63280   11.70597
       O   -14.24877   10.25902   12.20138
      H1   -15.07657   10.65691   11.94005
       H   -16.18991    4.40187    7.67781
       O   -15.45367    4.32481    7.01507
      H1   -14.62377    4.10905    7.43245
       H   -16.65623    0.09704    6.23798
       O   -16.36182   -0.55271    5.59496
      H1   -15.90415   -0.02092    4.89175
       H   -19.51448   11.31444    9.67173
       O   -18.60266   11.24793    9.44004
      H1   -18.01707   11.51867   10.14864
       H   -16.19567    2.37483    7.24644
       O   -16.52674    1.48771    7.31447
      H1   -17.48349    1.55739    7.17422
       H   -12.22105    6.97899    9.47140
       O   -12.17538    6.49910    8.64919
      H1   -12.39278    7.00421    7.87546
       H   -13.78709    1.79802   10.81060
       O   -13.12751    1.94235   10.16610
      H1   -13.07406    1.11190    9.66450
       H   -15.10610    7.30225   10.93285
       O   -14.47649    7.64962   11.57386
      H1   -14.77867    8.48409   11.89593
       H   -15.93524   10.89925    9.31061
       O   -15.49414   10.15850    8.83603
      H1   -15.84156    9.32327    9.12468
       H   -15.60154   -3.08308   13.22699
       O   -15.42950   -2.81113   12.30412
      H1   -16.25527   -2.34464   12.02573
       H   -15.51875    2.48662   13.44602
       O   -16.02277    3.01241   14.07775
      H1   -15.71452    3.94824   13.93054
       H   -19.54657    3.14095   13.90099
       O   -19.03895    2.81864   13.15724
      H1   -18.12562    2.83395   13.34148
       H   -16.59884    5.06791    4.69283
       O   -17.29388    4.48699    4.95696
      H1   -16.90247    3.93269    5.62173
       H   -17.51624    6.24163   16.46959
       O   -16.54892    6.23626   16.57889
      H1   -16.26896    6.32208   15.67796
       H   -14.40423    0.81065   12.64377
       O   -14.64624    1.62489   12.18904
      H1   -15.43307    1.36119   11.70589
       H   -16.06241    7.85466   17.82213
       O   -15.82052    8.68644   18.24871
      H1   -15.81930    9.37643   17.51885
       H   -16.64713    1.32642    9.21953
       O   -16.61026    1.11198   10.14724
      H1   -16.05280    0.25924   10.05013
       H   -13.17047    7.55563   15.53490
       O   -13.16464    7.30095   14.59040
      H1   -13.10396    6.35554   14.57740
       H   -16.74533   10.36847   14.56721
       O   -17.58180   10.83641   14.59340
      H1   -17.64723   11.25642   15.46565
       H   -14.50505   10.48453   15.17065
       O   -14.93619    9.61472   15.30788
      H1   -14.39708    9.06178   14.70319
       H   -14.26667   -1.56072   12.68193
       O   -13.82083   -0.75745   13.06230
      H1   -12.91298   -1.01854   13.10356
       H   -18.04932    5.95998    5.90784
       O   -18.51429    6.59472    6.45895
      H1   -18.02504    7.42103    6.35263
       H   -13.63955    4.31150   15.85144
       O   -12.71751    4.44548   15.50003
      H1   -12.16713    4.58288   16.23732
       H   -16.39215    6.15040   13.21542
       O   -15.63965    5.77623   13.74373
      H1   -14.95350    6.45690   13.65193
       H   -19.60841   -2.91174    9.68709
       O   -19.15182   -3.32843    8.95599
      H1   -19.53504   -2.91961    8.17380
       H   -14.28705   -0.98739    9.48255
       O   -15.08501   -1.17148    9.95137
      H1   -15.56016   -1.84267    9.46415
       H   -11.92570    2.65577   11.12303
       O   -11.16103    2.90412   11.64168
      H1   -11.12928    2.61074   12.56456
       H   -19.22250    7.79655   15.17964
       O   -18.51173    8.15123   14.59592
      H1   -18.44764    9.11673   14.66883
       H   -18.21925    6.39505   12.03226
       O   -17.71566    7.26126   12.27028
      H1   -17.95020    7.70463   13.08918
       H   -18.28492    3.73905    8.37201
       O   -17.53358    4.31784    8.64093
      H1   -17.76461    4.50025    9.53715
       H   -14.38216    5.40161    4.36775
       O   -14.86417    6.01427    4.92453
      H1   -14.96859    5.47340    5.71041
       H   -12.98701    8.06440   11.27103
       O   -12.12600    8.43855   10.96296
      H1   -11.34318    8.05761   11.40413
       H   -18.73871   -0.40493   12.67023
       O   -18.13665   -1.11812   12.65953
      H1   -18.04447   -1.43010   13.59885
       H   -17.11760    8.83023    4.99340
       O   -16.96794    8.84629    5.91617
      H1   -17.29539    9.75539    6.09082
       H   -15.96988    4.59586   16.67319
       O   -15.30118    3.81286   16.50022
      H1   -15.55109    3.39762   15.61101
       H   -17.07757   -1.34981   15.53472
       O   -17.94622   -1.64698   15.27775
      H1   -18.64996   -1.24966   15.79359
       H   -16.10679    2.06768   16.92478
       O   -15.99301    1.11549   17.22347
      H1   -15.22116    1.07526   17.82267
       H   -15.28986    0.20402   15.74104
       O   -15.39496   -0.62412   15.27209
      H1   -14.66559   -0.70970   14.56150
       H   -19.03594    9.63661   10.54661
       O   -19.38610    9.16855   11.28363
      H1   -18.60404    8.65821   11.58281
       H   -12.50356    4.47695    8.48484
       O   -12.78743    3.67451    8.00091
      H1   -12.89867    3.01077    8.68988
       H   -17.97830    5.28713   20.02993
       O   -17.74274    4.79731   19.22320
      H1   -18.45356    5.10464   18.61733

