138
frame 1 | Written by MDAnalysis XYZWriter (release 2.4.3)
       H    -2.21104   -1.56288   13.12714
       O    -2.58302   -1.20092   12.29803
      H1    -2.57610   -0.22666   12.38191
       H     3.43254   -3.13363   12.17027
       O     3.54314   -3.94179   12.65775
      H1     2.63719   -4.05803   12.90261
       H    -0.21854   -6.13873    6.04954
       O     0.08240   -7.06448    6.17847
      H1    -0.63288   -7.56537    6.57677
       H     0.32616  -12.32039   11.33431
       O     0.08798  -12.93277   10.60934
      H1    -0.42893  -12.32965   10.14093
       H     1.70756   -6.66613    3.29465
       O     1.45184   -7.58334    3.41931
      H1     0.59859   -7.63873    3.89557
       H     5.12472   -4.33869    8.80402
       O     5.83196   -4.51498    9.42113
      H1     5.41067   -5.12892   10.04547
       H     3.32540   -3.56662    7.80849
       O     4.00560   -4.16870    7.54194
      H1     3.63751   -5.08276    7.70966
       H     1.05255   -7.69493   14.02357
       O     1.55069   -7.19431   14.70367
      H1     2.42553   -7.16734   14.31686
       H    -1.22986   -4.62969    4.74001
       O    -0.76856   -4.44056    5.61099
      H1    -1.46994   -4.14427    6.19318
       H    -6.58543   -5.74373   11.41115
       O    -5.94427   -6.22796   11.94254
      H1    -6.13746   -7.17669   12.08057
       H     3.88166   -4.27796    5.57334
       O     4.07806   -4.13020    4.63203
      H1     3.22003   -4.30876    4.11827
       H    -1.33946   -9.05100    9.99304
       O    -0.78289   -8.36837   10.32084
      H1     0.02333   -8.82656   10.11820
       H     0.48234   -2.51141    8.69546
       O    -0.27971   -2.88442    9.25123
      H1    -1.07070   -2.61643    8.80952
       H    -3.56961   -5.93131    8.05496
       O    -3.46447   -6.86350    8.45773
      H1    -2.84903   -7.38391    7.91171
       H    -3.33983   -9.88040   11.38436
       O    -2.86448  -10.45883   10.79174
      H1    -3.60172  -10.74786   10.19551
       H     2.74922   -1.03444   10.25275
       O     3.23218   -0.83549    9.41714
      H1     4.08840   -0.80415    9.84755
       H    -2.61343  -11.71212   11.86983
       O    -2.54050  -12.34195   12.64255
      H1    -3.27913  -12.94818   12.69254
       H    -0.46196   -3.19872   13.96572
       O    -1.16625   -2.60227   14.26304
      H1    -1.71961   -3.09175   14.80793
       H    -3.59510   -8.37259   13.37381
       O    -4.18951   -8.51576   12.58815
      H1    -3.85104   -7.73303   12.05441
       H    -0.78946  -10.26381   14.67634
       O    -0.87151  -11.21616   14.58780
      H1    -1.57679  -11.44449   14.01773
       H    -2.81568   -6.34136   10.69335
       O    -2.63270   -6.14127   11.65186
      H1    -2.39552   -5.23719   11.72408
       H    -0.36095   -8.21625   12.01255
       O    -0.18820   -8.44192   12.92565
      H1     0.03129   -9.40817   12.89276
       H     0.23892  -10.75453    8.28823
       O    -0.58722  -11.22616    8.35859
      H1    -0.34808  -11.88341    7.69435
       H    -2.74359   -9.23177    6.64648
       O    -1.87719   -8.84298    6.99283
      H1    -1.59080   -9.66633    7.42991
       H     3.62709   -7.30274   10.15331
       O     2.72771   -7.54583    9.72871
      H1     2.12886   -7.10827   10.35225
       H    -0.31539   -0.94737   11.95542
       O     0.37657   -1.18296   11.33815
      H1     0.11794   -1.56529   10.53014
       H    -1.20605   -1.71827    5.55260
       O    -1.92808   -1.62184    6.23794
      H1    -1.59029   -0.98598    6.88596
       H    -4.13890   -1.82699   12.96561
       O    -4.79141   -2.21677   13.62382
      H1    -5.11968   -3.09048   13.35314
       H     2.74222   -7.96506    6.08146
       O     3.06684   -8.56894    5.42016
      H1     2.62630   -8.36570    4.57051
       H     4.58011   -5.24882   11.93858
       O     4.87300   -6.07228   11.50053
      H1     5.77614   -6.28796   11.83570
       H     2.25747  -10.65751   10.93649
       O     1.98498  -10.21821   10.15273
      H1     2.31837   -9.32627   10.30107
       H     4.38498   -7.43991   12.64739
       O     3.87965   -7.80130   13.39627
      H1     4.21761   -8.68363   13.59538
       H    -4.62617   -8.06724    8.38292
       O    -5.35089   -8.69563    8.26131
      H1    -5.03109   -9.43508    8.82103
       H    -2.68664   -2.40494   10.59296
       O    -3.30626   -2.86497    9.99672
      H1    -4.17509   -2.65176   10.36410
       H     2.11711   -2.17801    6.49427
       O     2.07745   -2.36690    7.47675
      H1     2.68530   -1.74864    7.96662
       H    -3.07039   -7.47940   14.78005
       O    -2.49987   -8.28523   14.88190
      H1    -1.72756   -7.95642   14.40026
       H     2.71303  -11.07348    7.50582
       O     2.00094  -10.73948    6.95674
      H1     2.39709  -10.01563    6.42077
       H     0.34901   -4.58782   12.45436
       O     0.67530   -4.53075   13.34950
      H1     0.90914   -5.43466   13.59873
       H    -3.63501   -4.54428    6.43037
       O    -3.02679   -4.42575    7.19083
      H1    -3.44728   -3.60912    7.63118
       H    -3.16214   -4.51859   15.94025
       O    -2.56655   -3.84592   16.20222
      H1    -3.02043   -3.24809   16.83888
       H    -1.28692   -5.32731   16.61897
       O    -0.61839   -5.97733   16.99420
      H1     0.17236   -5.92287   16.44683
       H    -0.12273   -5.71655   10.21391
       O     0.60829   -5.17778   10.42015
      H1     0.38664   -4.25111   10.06893
       H     1.82354   -6.65193    6.91344
       O     2.78035   -6.57050    7.21699
      H1     2.69717   -6.94853    8.13592
       H    -5.69225   -2.80703    7.82710
       O    -5.72996   -3.70751    8.25762
      H1    -5.92486   -4.31795    7.55041
       H    -4.44180   -5.98464   14.33071
       O    -3.81505   -5.87872   15.00677
      H1    -4.30867   -5.96198   15.80492
       H     0.87935   -2.81057   15.36024
       O     1.68642   -3.04364   15.86660
      H1     2.24654   -2.27611   15.90039

