138
frame 8 | Written by MDAnalysis XYZWriter (release 2.4.3)
       H     8.78491   -1.24301   -0.50552
       O     8.57102   -2.14801   -0.81427
      H1     9.07394   -2.72467   -0.22965
       H     7.00653   -0.30045    3.04402
       O     7.45423   -1.09226    3.41863
      H1     7.32819   -1.77460    2.78833
       H     4.74479   -1.40804   -2.33328
       O     4.41498   -2.05716   -2.93229
      H1     5.08668   -2.79449   -2.84368
       H    12.43083   -2.47656   -0.44819
       O    12.98970   -2.09589   -1.13101
      H1    13.48990   -2.84403   -1.55686
       H     7.26347   -2.69532    0.57076
       O     7.09745   -3.03153    1.49708
      H1     6.13821   -3.12503    1.48296
       H    14.14777   -4.79506   -3.20172
       O    14.27704   -4.31282   -2.35194
      H1    14.02013   -4.93320   -1.63667
       H    13.39463   -1.71181   -8.65858
       O    12.65273   -1.42364   -8.05116
      H1    12.25385   -0.74634   -8.62896
       H    13.50944    0.92446   -6.40974
       O    14.01374    0.77756   -7.14823
      H1    13.48619    0.20078   -7.67950
       H     6.16721   -6.36588    1.66973
       O     6.79827   -5.85941    1.15979
      H1     6.76947   -5.01783    1.56358
       H    10.21934    4.18200   -2.13080
       O    10.53966    5.06403   -2.26210
      H1    11.34519    5.15089   -1.70099
       H     1.98310   -1.75191   -0.79273
       O     2.57329   -2.53403   -0.90575
      H1     3.11794   -2.20214   -1.63434
       H    10.25727   -1.54486    3.26467
       O    10.22395   -0.59488    3.18738
      H1     9.31525   -0.36710    3.55601
       H     6.74530    2.88769    0.59127
       O     6.48148    3.56289   -0.06305
      H1     5.49738    3.72910   -0.00487
       H     9.16399    1.36834   -6.73086
       O     8.77349    0.74878   -7.37245
      H1     8.13891    1.21620   -7.93832
       H    15.28012   -1.23982   -3.78883
       O    15.85865   -0.92646   -3.07475
      H1    15.28063   -0.28272   -2.54761
       H    12.91008   -6.22981    0.57828
       O    13.26713   -5.39936    0.30262
      H1    14.17877   -5.39178    0.68681
       H     6.07495    0.49313   -1.20286
       O     5.47542   -0.29297   -1.07727
      H1     5.00851   -0.12265   -0.23798
       H    14.57747    0.49475   -0.58531
       O    14.42690    0.78891   -1.48553
      H1    14.56487    1.73821   -1.60966
       H    11.84317   -2.86303    1.75736
       O    11.19090   -2.73252    1.00664
      H1    10.71818   -3.59408    1.08337
       H    11.37877   -7.32831   -1.41641
       O    10.43644   -7.39903   -1.69432
      H1    10.55078   -7.92245   -2.51602
       H     8.50838   -6.44710   -5.18516
       O     9.16012   -7.15555   -5.40880
      H1     8.90142   -7.34945   -6.27629
       H     7.49063   -3.13970   -8.41285
       O     6.96042   -3.72092   -8.92861
      H1     6.97018   -3.38349   -9.84434
       H     8.03852    1.06813    1.47479
       O     7.20163    1.31834    1.87414
      H1     7.42794    2.09358    2.45655
       H    10.62767    1.77362   -1.61076
       O     9.87996    2.34742   -1.28989
      H1     9.00118    1.99535   -1.50828
       H     7.04932   -2.57092   -5.55293
       O     7.84823   -3.12188   -5.38396
      H1     8.35225   -2.66059   -4.61421
       H    12.80686    0.66884   -1.75005
       O    11.88616    0.53406   -2.05390
      H1    11.87502   -0.43759   -2.02325
       H    12.04784   -5.17316    2.40054
       O    11.35940   -4.75078    2.99880
      H1    10.62819   -5.37557    3.24277
       H     5.26487    0.69921   -4.73230
       O     4.42084    0.25924   -4.72190
      H1     4.03422    0.74778   -3.99614
       H    13.08299    1.97662   -4.64945
       O    12.43545    1.32361   -4.85001
      H1    12.13540    0.91657   -4.02196
       H     7.18341    2.06231   -2.83967
       O     7.19085    1.72982   -1.93143
      H1     6.96397    2.52415   -1.34021
       H     4.94027   -4.99047   -2.46983
       O     5.83697   -4.69602   -2.70911
      H1     6.14490   -5.03829   -3.56385
       H    11.16250   -2.33972   -4.14978
       O    11.95878   -2.81497   -3.76083
      H1    11.78493   -3.25944   -2.96072
       H     8.88673   -1.00407   -7.67582
       O     8.91499   -1.97688   -7.72978
      H1     8.64738   -2.22631   -6.85094
       H    11.36720   -4.32188   -6.70031
       O    11.35796   -3.94554   -7.61117
      H1    11.83284   -3.08844   -7.55836
       H    11.07434    2.32599   -5.62572
       O    10.13486    2.69222   -5.75889
      H1    10.36485    3.63375   -5.98581
       H    14.38988   -6.74821   -3.84487
       O    14.20874   -6.03076   -4.44743
      H1    13.27588   -6.03283   -4.68872
       H    13.67716   -2.27226   -4.73074
       O    14.56960   -2.51975   -5.12443
      H1    14.58421   -3.48399   -5.19753
       H     4.88805   -3.37657   -5.60727
       O     5.03106   -2.39068   -5.63975
      H1     4.84320   -2.11250   -4.68635
       H     3.87785   -3.22515   -0.03376
       O     4.49874   -3.60224    0.61104
      H1     5.09749   -4.24808    0.19997
       H     9.03339   -7.47966   -0.18394
       O     8.84395   -7.77154    0.70287
      H1     8.04342   -7.33503    1.01127
       H     9.33569   -0.95925   -3.68808
       O     9.29887   -1.91113   -3.58332
      H1     9.14671   -2.15262   -2.63423
       H    10.91450   -4.43700   -4.59396
       O    11.14861   -5.14996   -5.28320
      H1    10.46912   -5.81228   -5.25770
       H     8.10907    3.39563   -5.00702
       O     7.24036    2.87975   -4.91700
      H1     6.65697    3.52538   -4.52542
       H     6.33896   -5.91047   -5.79034
       O     6.79035   -5.66616   -4.98487
      H1     7.11379   -4.81387   -5.25506
       H    11.70856   -8.79818   -4.64365
       O    10.85582   -8.75694   -4.09536
      H1    10.21780   -8.33182   -4.71200
       H     9.98294    0.73542   -0.04739
       O     9.49722    0.15728    0.54145
      H1    10.19407   -0.20941    1.09808

