138
frame 4 | Written by MDAnalysis XYZWriter (release 2.4.3)
       H   -10.65615  -16.51821   -3.79895
       O    -9.89102  -16.02266   -4.12713
      H1    -9.17174  -16.61562   -4.30465
       H   -15.97800  -12.06378   -0.66182
       O   -16.57190  -12.04443   -1.41291
      H1   -16.95362  -12.91809   -1.43645
       H    -9.30729  -18.95618    1.56198
       O    -9.46999  -19.64370    0.88381
      H1   -10.37420  -19.93897    1.14589
       H   -15.79734   -8.99307    2.41474
       O   -15.26361   -8.61434    1.71424
      H1   -15.72799   -8.37846    0.95691
       H   -16.17509  -19.20909    6.70353
       O   -16.77899  -18.48111    6.96202
      H1   -17.05924  -18.86530    7.77153
       H   -17.71309  -11.89999    1.58401
       O   -18.38035  -11.25476    1.31213
      H1   -18.30388  -10.47342    1.93780
       H   -10.14145  -16.99202    1.96904
       O    -9.40921  -17.44986    2.42752
      H1    -9.75056  -17.58705    3.34119
       H   -17.53250  -15.33861    5.70570
       O   -18.17129  -14.72181    6.15334
      H1   -18.95237  -15.26381    6.38767
       H   -17.40387  -15.80178   -7.43152
       O   -16.66721  -16.32238   -7.73525
      H1   -16.42502  -16.03159   -8.60025
       H   -17.67256  -15.22444   -4.03554
       O   -18.59984  -15.18393   -4.11454
      H1   -18.85474  -16.12306   -4.01190
       H   -17.50729  -14.33758    2.21241
       O   -17.17624  -13.43755    2.51762
      H1   -16.98543  -13.60658    3.42511
       H   -11.82449  -12.56552   -0.08960
       O   -10.91620  -12.28441   -0.37914
      H1   -10.98230  -11.38264   -0.56712
       H   -16.07071  -17.83229   -0.24478
       O   -15.69478  -17.02756    0.15987
      H1   -15.20831  -17.25417    0.91017
       H    -9.75629  -19.05798   -0.84039
       O    -9.72905  -18.72520   -1.77827
      H1   -10.53219  -18.31234   -1.93864
       H   -18.78846   -8.22489   -0.85765
       O   -19.16267   -7.40451   -0.54944
      H1   -18.65478   -6.73401   -0.93531
       H   -15.44855  -17.45458    3.73783
       O   -15.33846  -18.05163    2.93018
      H1   -14.88770  -18.87393    3.28710
       H   -18.43295  -19.27479   -7.30001
       O   -18.57028  -18.46285   -7.86494
      H1   -17.89728  -17.84517   -7.49740
       H   -18.48689  -13.04001    6.66903
       O   -18.75194  -12.40424    7.34621
      H1   -18.33829  -12.73569    8.17516
       H   -15.82530  -12.84120    1.39494
       O   -15.14997  -12.59400    0.79644
      H1   -14.59738  -11.90202    1.22318
       H   -12.22205  -16.69741    2.06000
       O   -11.65626  -16.61460    1.25325
      H1   -11.84764  -15.67842    1.03479
       H   -17.66590   -9.36864    4.33348
       O   -17.36568   -8.97367    3.47596
      H1   -18.17334   -8.55488    3.13015
       H    -9.78604  -14.46558   -2.83015
       O    -9.57403  -13.59268   -2.52232
      H1   -10.44368  -13.18994   -2.20319
       H   -19.50147  -13.37774   -1.54592
       O   -18.64994  -13.86331   -1.59475
      H1   -18.75100  -14.33321   -2.43848
       H   -18.71964  -11.20574    6.11804
       O   -18.80901  -10.52313    5.40146
      H1   -19.27242  -11.00823    4.66849
       H   -16.05850   -9.70199   -5.54649
       O   -15.99387   -9.59833   -4.61058
      H1   -16.89410   -9.43771   -4.29280
       H   -17.43468  -10.48439   -1.73989
       O   -17.77188   -9.65032   -2.05731
      H1   -18.72182   -9.84978   -2.26273
       H   -13.90423  -10.01433    2.13445
       O   -13.47544  -10.85023    2.26001
      H1   -12.65152  -10.80960    2.72654
       H   -13.06656   -8.46268   -2.60407
       O   -12.75147   -9.31848   -2.25245
      H1   -13.31505  -10.08640   -2.61576
       H   -18.08912  -15.18157   -0.56314
       O   -18.11868  -15.95090    0.03294
      H1   -17.21689  -16.15098    0.24976
       H   -18.44345  -18.86647    6.06346
       O   -19.41600  -18.66900    5.90795
      H1   -19.66483  -18.79428    5.00388
       H   -19.74107  -14.99022   -7.14472
       O   -18.85227  -14.77930   -6.86450
      H1   -18.77631  -14.99868   -5.92469
       H   -15.11946  -10.86333   -3.94441
       O   -14.50930  -11.36467   -3.36265
      H1   -15.11460  -11.67527   -2.67077
       H   -14.39162  -12.15062    3.64487
       O   -14.68484  -12.64622    4.39085
      H1   -14.46168  -12.09208    5.17091
       H   -13.69882  -16.30129    7.47129
       O   -14.05168  -15.50130    7.02559
      H1   -14.72890  -15.06493    7.64638
       H   -18.27994  -17.61734   -0.86599
       O   -17.97029  -18.41423   -1.39452
      H1   -18.06422  -19.19856   -0.78495
       H   -16.18220  -17.09696    5.65955
       O   -15.80889  -16.42230    5.13080
      H1   -15.16164  -16.05873    5.71813
       H   -13.75682  -12.91985   -3.95050
       O   -13.10212  -13.62033   -4.24967
      H1   -12.35743  -13.12713   -4.66739
       H   -13.03990  -14.37249   -0.77913
       O   -12.81822  -14.04325    0.17565
      H1   -13.61960  -13.59457    0.44381
       H   -15.59607  -19.26062   -4.76351
       O   -15.28983  -18.30565   -5.04462
      H1   -15.42117  -18.20019   -6.01375
       H   -12.92054  -13.62280    5.26780
       O   -12.08744  -13.99458    5.64403
      H1   -12.49567  -14.75076    6.12800
       H   -12.39465  -17.71440   -2.00800
       O   -11.93249  -17.33904   -2.76191
      H1   -12.29245  -17.77318   -3.51874
       H   -13.92044  -15.71087    3.68015
       O   -12.96327  -15.90829    3.72041
      H1   -12.50299  -15.02475    3.97979
       H   -15.33757  -15.83700   -3.00237
       O   -16.01249  -16.06661   -3.63815
      H1   -15.72898  -16.83332   -4.08127
       H   -13.34462  -14.55237   -3.00664
       O   -13.65583  -15.09014   -2.24004
      H1   -13.03055  -15.80245   -2.15145
       H   -12.59712  -17.50276    0.20145
       O   -13.18922  -17.86634   -0.52390
      H1   -14.06590  -17.40884   -0.41728
       H   -14.54513  -15.87983   -5.83178
       O   -13.97539  -15.40372   -6.42397
      H1   -14.01133  -14.65395   -5.84444

