138
frame 3 | Written by MDAnalysis XYZWriter (release 2.4.3)
       H   -16.50393    5.43831    7.36425
       O   -15.61277    5.02806    7.31202
      H1   -15.40721    4.85962    8.23905
       H   -13.20816    0.39275    3.81793
       O   -14.08258    0.74054    3.59543
      H1   -14.47115    0.94288    4.44750
       H   -16.65535    3.10990    7.87981
       O   -17.38201    2.76683    8.43332
      H1   -18.21040    3.23926    8.16292
       H   -19.55849    4.90681    2.16402
       O   -18.67079    4.49128    2.08525
      H1   -18.74964    3.76473    1.41877
       H   -10.05739   -1.94896    2.27228
       O    -9.38203   -2.35389    2.75092
      H1    -9.11825   -1.81938    3.52075
       H   -19.29748    1.04749    4.42562
       O   -18.70241    1.26575    3.64285
      H1   -18.29538    2.14395    3.84635
       H   -10.69272    4.76485    5.88309
       O   -10.07976    4.52566    6.56307
      H1   -10.43295    5.04275    7.29180
       H   -13.48993   -3.78210   -1.05401
       O   -12.82998   -3.08453   -1.32554
      H1   -12.53072   -2.66017   -0.54287
       H   -16.46410    2.27089    4.86186
       O   -16.09025    1.69241    5.55233
      H1   -16.86757    1.36069    5.97733
       H   -10.80873   -4.81041    3.26149
       O   -10.76468   -4.29717    4.07041
      H1   -10.19237   -3.58112    3.78157
       H   -11.30144    1.93377    0.94968
       O   -12.24242    2.24018    0.83390
      H1   -12.56924    1.74175    0.06612
       H   -14.28264   -0.59481    2.61630
       O   -14.38030   -1.38780    2.01026
      H1   -14.72388   -2.07827    2.60223
       H   -11.81046   -0.81100    4.21954
       O   -11.49549   -0.03182    3.69192
      H1   -10.56219   -0.05224    3.94772
       H   -16.24024   -1.10616   -0.19635
       O   -16.51833   -0.79340    0.64012
      H1   -15.74219   -1.05560    1.16584
       H   -16.80386    1.10334    9.28244
       O   -16.57475    0.39468    9.92767
      H1   -15.96375   -0.33172    9.62332
       H   -12.40037   -2.96030    4.38753
       O   -12.60584   -2.20292    4.92105
      H1   -13.49533   -2.11790    5.04387
       H    -9.80864   -3.17024    6.43543
       O   -10.58411   -2.70605    6.79277
      H1   -11.24038   -2.51005    6.13185
       H   -14.85262   -4.37021    3.14328
       O   -15.45539   -3.96606    2.50463
      H1   -15.11638   -4.20848    1.61957
       H   -11.54165    6.27775    5.76495
       O   -11.77679    5.95382    4.85328
      H1   -12.54510    5.38351    4.99981
       H   -14.76678    1.87495    1.95178
       O   -15.45859    2.37476    1.53235
      H1   -15.52642    2.08675    0.61634
       H   -13.03410    7.00573    3.17423
       O   -13.55149    7.34184    2.49540
      H1   -13.05637    7.14276    1.69479
       H   -13.58935   -5.80456    4.46671
       O   -14.22157   -5.12647    4.61741
      H1   -14.10421   -4.91647    5.56774
       H   -17.18867   -1.51866    8.25239
       O   -16.44219   -2.09183    8.44633
      H1   -15.91153   -2.01828    7.63517
       H   -10.50601    2.58699    7.29113
       O   -10.66621    1.73221    7.62251
      H1   -10.98816    1.83976    8.52563
       H   -12.28193   -0.76535    8.15005
       O   -12.83730   -0.02819    7.81382
      H1   -12.15464    0.61425    7.59837
       H   -11.07519    1.03846   -1.55924
       O   -11.94328    1.33179   -1.76662
      H1   -11.92756    2.08099   -2.38580
       H   -19.25323   -1.38126    7.44389
       O   -18.58871   -0.72037    7.31936
      H1   -18.19390   -0.88321    6.41889
       H    -8.48345   -0.07790    5.57745
       O    -8.63920   -0.24270    4.62035
      H1    -8.30422    0.56043    4.12766
       H   -10.09011    5.56810    1.81667
       O   -10.50596    4.89368    1.25143
      H1   -10.49491    4.17623    1.87507
       H   -11.99620   -2.98613    1.18961
       O   -11.88120   -2.03237    1.14664
      H1   -12.66490   -1.66369    1.57777
       H   -18.19916   -3.61185    4.91647
       O   -18.32702   -3.50109    3.96019
      H1   -17.59902   -4.05917    3.66278
       H   -17.83810   -0.18491    4.34004
       O   -17.39686   -0.95691    4.78956
      H1   -17.62128   -1.68326    4.18166
       H   -17.60515    4.10823    3.32742
       O   -16.87355    3.51738    3.68072
      H1   -16.46567    3.12514    2.86669
       H   -19.44232   -0.51827    0.66767
       O   -19.08765   -1.40132    0.51685
      H1   -18.08576   -1.27270    0.54548
       H   -13.40749    3.25212    4.47949
       O   -13.55154    3.89822    5.20037
      H1   -14.51579    3.88086    5.26877
       H   -12.99349    3.64193   -0.13176
       O   -13.43762    4.29740   -0.71408
      H1   -14.11108    4.74162   -0.17615
       H   -15.21402    6.63869    2.45749
       O   -16.05502    6.30799    2.79461
      H1   -16.36143    5.63501    2.17037
       H   -15.63537    6.17416    6.03577
       O   -15.98033    6.85779    5.45099
      H1   -15.92621    6.54947    4.49704
       H    -8.76431    4.59566    3.33585
       O    -9.15845    3.73903    3.49250
      H1    -8.97744    3.64957    4.45638
       H   -13.17122    0.10634   -1.99999
       O   -13.88445   -0.62343   -2.16402
      H1   -13.49880   -1.33055   -1.65017
       H   -14.98052    1.21685   -1.38486
       O   -15.63050    1.87397   -1.11050
      H1   -15.44614    2.72459   -1.56716
       H   -18.24115    2.31409   -0.24840
       O   -18.41730    2.02505    0.67967
      H1   -17.69716    1.44451    0.85598
       H   -15.66387   -1.23474    5.71832
       O   -14.87232   -1.57837    6.19158
      H1   -14.34312   -0.86350    6.52753
       H   -15.82254    4.16210    1.01242
       O   -16.00156    4.99261    0.53821
      H1   -16.87731    4.86073    0.12119
       H   -13.86955    5.77230    7.34587
       O   -12.96883    6.05229    7.44195
      H1   -12.48654    5.46544    8.02466
       H    -9.14240    0.37002    0.74286
       O    -9.50532    0.95150    0.06698
      H1    -9.17264    1.82711    0.22741

