138
frame 9 | Written by MDAnalysis XYZWriter (release 2.4.3)
       H    -1.56019    8.89037    7.80490
       O    -1.31905    9.89316    7.71861
      H1    -1.99309   10.28473    8.25845
       H    -4.42875    5.08003   12.90129
       O    -4.35225    4.24465   12.31208
      H1    -4.29947    3.49098   12.90730
       H    -7.24054    2.00134   11.05425
       O    -6.57676    1.68087   11.64652
      H1    -6.29652    2.40740   12.12155
       H     1.20861    3.69412    5.01893
       O     1.08272    4.56459    5.31034
      H1     1.96196    4.92592    5.33967
       H    -8.90791    8.25889    6.38607
       O    -8.33665    7.55032    6.78540
      H1    -8.98290    7.13344    7.40673
       H     1.85486    4.23120   10.17252
       O     2.28226    4.93005   10.69413
      H1     1.57364    5.15311   11.35747
       H    -0.99628    6.76205    5.11329
       O    -0.27149    7.02796    5.66053
      H1     0.23270    6.22925    5.71345
       H    -0.05049    3.47044   13.93001
       O    -0.40132    3.49743   14.81448
      H1     0.18011    2.84500   15.25566
       H    -6.84282   -0.54847    6.80603
       O    -6.40062   -0.06340    6.12605
      H1    -5.56355    0.21898    6.60809
       H    -1.88825    5.32071    9.41315
       O    -2.31778    4.72284    8.75089
      H1    -3.17734    4.46862    9.16789
       H    -2.32926    2.21486    4.64850
       O    -2.89625    2.71789    4.02689
      H1    -3.56960    2.11808    3.62136
       H    -1.54769   -0.30309   13.04021
       O    -1.99511   -0.73303   13.85164
      H1    -2.00049   -0.04802   14.52326
       H    -9.03635    2.60330    9.71605
       O    -9.17241    2.04687   10.48478
      H1    -9.90928    2.38358   11.02301
       H    -2.21068    7.30500   10.56790
       O    -2.04016    6.38586   10.84080
      H1    -2.65719    6.12307   11.53706
       H    -5.04265    6.39073    9.17515
       O    -4.82693    6.91487    9.96328
      H1    -5.18648    7.74720    9.60862
       H    -6.90824    1.72546    5.71695
       O    -6.93684    2.55895    5.16975
      H1    -6.20903    3.22892    5.39470
       H    -1.64907   10.29786   12.25105
       O    -2.45420    9.93175   12.61871
      H1    -2.58959   10.29534   13.51191
       H    -8.31218    4.83465    9.00040
       O    -8.26470    3.99027    8.51486
      H1    -7.53718    4.06753    7.94813
       H    -2.28274    4.80800    4.15999
       O    -2.49490    5.72178    4.44273
      H1    -3.28607    5.64424    5.00956
       H    -3.79405    8.60212   10.14114
       O    -3.05275    9.18845   10.09118
      H1    -3.10627    9.59544   10.96205
       H    -2.19732    6.40074    7.91765
       O    -2.14973    7.28657    7.51835
      H1    -1.49863    7.11363    6.81324
       H    -5.83880    7.98464    5.15016
       O    -6.65064    7.65943    4.63864
      H1    -7.34981    7.56239    5.34488
       H    -2.03563   -2.43110   10.28325
       O    -1.51239   -1.62501   10.24769
      H1    -1.58340   -1.40845    9.29042
       H    -5.52973    4.50961    8.28758
       O    -5.63373    5.27881    7.70540
      H1    -5.29696    5.05477    6.81190
       H     0.47675   -0.80114    6.20786
       O    -0.24003   -0.80829    5.58597
      H1    -0.56840    0.10253    5.54264
       H    -5.65442    6.30380   11.84132
       O    -6.54498    6.34229   12.23132
      H1    -6.42405    6.58382   13.20356
       H    -5.70739   -1.14785    9.69227
       O    -4.73872   -1.26763    9.62638
      H1    -4.43874   -1.45418   10.49456
       H     1.63052    8.69831    9.56403
       O     1.36639    8.94046   10.48001
      H1     1.08528    8.14889   10.94883
       H    -5.54980    8.47761    7.53178
       O    -6.12727    8.64499    8.32576
      H1    -6.90324    8.09788    8.10082
       H    -4.20607   -0.33713    8.28005
       O    -3.95577    0.21079    7.50653
      H1    -3.56739    0.96835    7.94808
       H    -0.45526    6.33779   11.78635
       O     0.39352    6.72177   12.15744
      H1     0.31862    6.60303   13.14196
       H    -0.92066    3.50427    8.22351
       O    -0.13352    3.27206    7.66826
      H1    -0.03281    3.93218    7.01974
       H    -9.00312    5.99149   10.67510
       O    -8.47819    6.32316    9.89424
      H1    -7.53869    6.14023   10.22682
       H     1.67430    2.84168    8.33211
       O     2.25618    2.52804    9.01192
      H1     2.99464    2.12786    8.54027
       H    -1.62957    0.35228   11.17350
       O    -1.16164    0.76374   11.86476
      H1    -0.18121    0.50129   11.83242
       H    -1.97187    9.86099    5.94848
       O    -2.74957   10.05541    5.40312
      H1    -3.43018   10.63653    5.87338
       H    -7.12142    0.60444   12.75665
       O    -7.49775    0.21163   13.59123
      H1    -8.49817    0.39585   13.51464
       H    -0.67355    2.13403    6.20800
       O    -1.02212    1.65147    5.42297
      H1    -0.33137    1.76368    4.73266
       H    -5.44369    4.63982    4.38286
       O    -4.99564    4.25308    5.18027
      H1    -4.24363    3.68978    4.82792
       H    -7.08716    0.87188    8.40833
       O    -6.36438    1.29010    8.96551
      H1    -6.41762    0.88322    9.84260
       H    -4.62021    7.45186   13.84105
       O    -4.08560    7.20690   13.10836
      H1    -3.57432    8.01261   12.93660
       H     2.74452    1.94493   11.88049
       O     1.86810    2.02767   12.27442
      H1     1.75105    2.97749   12.25641
       H    -3.44308    1.66926   14.43659
       O    -4.13563    1.89399   13.83494
      H1    -4.91985    2.04097   14.33882
       H    -1.76504    3.80720   12.73394
       O    -0.95033    3.69210   12.19425
      H1    -0.95522    2.72448   12.02534
       H    -4.45801    3.95788   10.54142
       O    -4.56840    3.59378    9.64491
      H1    -4.93913    2.73378    9.86251
       H    -3.92894    7.45702    6.74755
       O    -4.38132    7.99240    6.11517
      H1    -3.73676    8.73558    5.95303

