141
frame 3 | Written by MDAnalysis XYZWriter (release 2.4.3)
       H   -17.24162   -5.77510   -2.87538
       O   -18.14338   -5.70495   -2.44678
      H1   -18.73357   -5.32468   -3.13037
       H   -15.96616   -7.33379    0.85463
       O   -15.16286   -7.46070    0.37993
      H1   -15.42069   -8.18209   -0.27074
       H   -16.81575   -4.92136   -6.32932
       O   -17.53788   -5.21773   -5.74818
      H1   -18.02887   -4.37906   -5.48257
       H   -12.91616   -6.49236   -9.57514
       O   -13.63568   -5.91006   -9.23752
      H1   -13.24333   -5.05855   -9.46709
       H   -14.72270   -5.46604   -3.69823
       O   -15.58736   -5.14239   -3.70119
      H1   -16.01591   -5.42159   -4.47266
       H   -13.48993   -3.78210   -1.05401
       O   -12.82998   -3.08453   -1.32554
      H1   -12.53072   -2.66017   -0.54287
       H    -8.96533   -6.03710   -4.31629
       O    -8.69865   -5.72649   -3.39663
      H1    -9.62003   -5.36489   -3.12056
       H   -15.61631   -1.38210   -8.44880
       O   -15.01273   -2.13720   -8.47132
      H1   -14.74085   -2.12534   -9.39046
       H    -8.16765   -4.04051   -4.09150
       O    -8.03966   -3.30311   -4.71233
      H1    -7.19306   -3.42500   -5.17637
       H   -15.66205   -3.62352   -4.14685
       O   -15.86879   -2.70317   -4.28404
      H1   -15.01746   -2.31097   -4.59538
       H   -14.58634   -5.16967   -7.38708
       O   -14.81790   -4.54750   -6.65681
      H1   -14.89930   -3.66406   -7.11657
       H   -12.64120   -9.83317   -8.09978
       O   -12.71828   -8.95373   -8.57687
      H1   -13.35540   -8.50033   -8.00097
       H   -10.15007   -5.38702   -6.41955
       O    -9.68461   -6.13487   -6.02006
      H1    -9.72936   -6.86432   -6.63116
       H    -8.98718   -5.75184   -0.07602
       O    -8.79777   -4.94849    0.39621
      H1    -7.86603   -4.94802    0.54288
       H   -18.20021   -2.41707   -6.13713
       O   -18.19842   -2.46123   -5.15807
      H1   -17.22097   -2.45176   -4.88727
       H   -14.85262   -4.37021    3.14328
       O   -15.45539   -3.96606    2.50463
      H1   -15.11638   -4.20848    1.61957
       H   -11.67962   -7.86187   -9.31465
       O   -11.15883   -7.22322   -9.86993
      H1   -11.54990   -7.42767  -10.72564
       H   -13.40235   -1.08245   -3.84689
       O   -13.61991   -1.23552   -4.78359
      H1   -13.94723   -0.40264   -5.06352
       H   -15.59476   -8.11115   -5.40856
       O   -15.01893   -7.37160   -5.14467
      H1   -14.29709   -7.29617   -5.81117
       H   -13.11768   -6.40664   -7.77398
       O   -12.92262   -6.78636   -6.91472
      H1   -12.45805   -6.05617   -6.42022
       H   -12.31964  -10.69923   -5.98284
       O   -12.21364  -10.44048   -5.04389
      H1   -13.00855   -9.95289   -4.83425
       H   -11.36939   -8.64741   -4.12372
       O   -11.27623   -7.86790   -3.57232
      H1   -10.89790   -7.22140   -4.16226
       H   -11.07519    1.03846   -1.55924
       O   -11.94328    1.33179   -1.76662
      H1   -11.92756    2.08099   -2.38580
       H   -11.76293   -4.92744   -3.72954
       O   -11.43468   -5.11922   -2.85526
      H1   -11.75277   -4.33298   -2.31649
       H    -6.87658   -7.11254   -3.63095
       O    -6.26471   -7.82956   -3.80462
      H1    -6.78479   -8.53563   -4.14451
       H    -8.09295   -8.20226   -0.81412
       O    -7.46923   -7.82582   -0.16082
      H1    -6.62766   -7.96353   -0.56822
       H    -8.41572   -9.24382   -6.12858
       O    -7.62960   -9.73371   -5.75169
      H1    -8.06953  -10.29559   -5.06003
       H    -8.53040   -0.33740   -6.64773
       O    -9.39725   -0.43111   -7.07384
      H1    -9.83419   -1.16953   -6.56511
       H   -13.90941   -9.05413   -2.35766
       O   -13.99482  -10.06696   -2.13689
      H1   -14.26948  -10.55395   -2.92051
       H   -11.99620   -2.98613    1.18961
       O   -11.88120   -2.03237    1.14664
      H1   -12.66490   -1.66369    1.57777
       H   -10.96938   -3.69255  -10.02334
       O   -11.91600   -3.63985  -10.15120
      H1   -12.09102   -2.77149   -9.88921
       H   -11.30624   -6.04121    1.39931
       O   -11.07953   -5.13896    1.61203
      H1   -10.16076   -5.06687    1.20361
       H    -6.08972   -1.12713   -3.89691
       O    -6.76143   -1.58223   -3.37991
      H1    -7.17979   -2.22716   -3.94387
       H    -8.61045   -9.23648   -2.33158
       O    -9.32989   -8.85894   -1.80136
      H1   -10.01289   -8.38829   -2.34372
       H    -8.22544   -1.99955    0.08814
       O    -7.70086   -1.59695    0.80111
      H1    -8.18170   -1.85931    1.61759
       H    -9.46337   -3.08161   -6.34030
       O   -10.39121   -3.04379   -6.64820
      H1   -10.35749   -2.84202   -7.58642
       H   -16.11645   -2.59120   -2.62067
       O   -16.49053   -2.59512   -1.72398
      H1   -17.47541   -2.61002   -1.94794
       H   -14.12508   -7.09847   -3.56089
       O   -13.70178   -7.15059   -2.69026
      H1   -12.73440   -7.22798   -2.81187
       H   -13.17122    0.10634   -1.99999
       O   -13.88445   -0.62343   -2.16402
      H1   -13.49880   -1.33055   -1.65017
       H    -9.78010   -2.27256   -0.89419
       O    -9.05164   -2.79503   -1.17937
      H1    -9.06992   -3.51237   -0.59350
       H   -15.76572    1.08664   -3.31834
       O   -16.14074    0.52705   -3.97763
      H1   -16.29975   -0.22416   -3.44998
       H   -10.85713   -8.09625   -7.07006
       O   -10.06560   -8.66604   -6.98612
      H1   -10.00504   -9.10964   -7.86471
       H   -11.16966   -9.67593   -1.17462
       O   -11.81006  -10.08865   -0.60253
      H1   -12.62912  -10.19249   -1.15404
       H   -13.27343   -4.32978   -5.62140
       O   -12.37938   -4.37187   -5.27148
      H1   -11.95042   -3.58114   -5.55269
       H   -13.12363   -7.41809    1.01986
       O   -12.24093   -7.82326    1.20113
      H1   -12.06314   -8.62128    0.67176
       H   -14.94467   -5.51789   -0.36590
       O   -14.72808   -4.56889   -0.23738
      H1   -15.56284   -4.10979   -0.44221
       H    -5.17003   -4.38839   -6.22884
       O    -5.74381   -3.62766   -6.24880
      H1    -6.41726   -3.94427   -6.88167

