141
frame 6 | Written by MDAnalysis XYZWriter (release 2.4.3)
       H    -7.62051    9.50530  -17.92135
       O    -8.23702   10.20751  -18.21931
      H1    -8.84330   10.45528  -17.45963
       H    -6.33024    5.76375  -18.83643
       O    -6.24382    6.09436  -17.89072
      H1    -5.59930    5.54483  -17.44976
       H   -11.03873    9.14874  -11.54664
       O   -10.29297    8.97508  -12.16645
      H1   -10.51524    8.04880  -12.36504
       H   -10.20489   -1.55675  -10.84389
       O   -10.23353   -1.21769  -11.77505
      H1   -11.10542   -1.47809  -12.08096
       H   -11.24618    7.66827  -17.09598
       O   -10.36483    7.78879  -16.74565
      H1    -9.77004    7.86161  -17.50480
       H   -16.48179    0.31724  -12.60094
       O   -15.59411    0.70616  -12.64942
      H1   -15.30668    0.46677  -13.51945
       H    -7.78002    0.58820  -14.66515
       O    -7.92553    1.30242  -15.31382
      H1    -7.32194    1.07514  -16.04143
       H   -13.72768   -0.01474  -15.94831
       O   -14.63603    0.06781  -16.22361
      H1   -14.86956    0.90538  -15.77314
       H   -16.46216    6.31472  -17.50174
       O   -16.38394    5.35723  -17.66275
      H1   -15.37237    5.26594  -17.70868
       H   -10.49242    5.94667  -19.28779
       O   -11.27577    5.43796  -19.08910
      H1   -11.82235    6.02501  -18.52574
       H   -13.08751    7.28746  -16.79749
       O   -13.14321    7.63658  -17.70728
      H1   -13.39611    8.55680  -17.63784
       H   -14.83783    1.89202  -11.39516
       O   -14.37675    2.36188  -10.64057
      H1   -15.02288    2.81483  -10.05589
       H    -5.56699    7.94054  -17.97079
       O    -5.89051    8.86151  -18.06277
      H1    -5.18258    9.31130  -17.61900
       H    -7.05765    7.79357  -15.34691
       O    -6.45870    7.20933  -14.83710
      H1    -5.85860    6.67035  -15.33364
       H   -12.56295    1.40901  -10.67244
       O   -11.98666    0.71292  -10.24499
      H1   -11.35933    0.47424  -10.94609
       H    -4.80485   -0.38321  -14.93280
       O    -5.47508   -1.06067  -14.86544
      H1    -5.61321   -1.27101  -13.98474
       H   -10.59780    6.27437  -12.57506
       O   -10.36743    6.55687  -13.47126
      H1    -9.46855    6.18504  -13.62355
       H   -13.28787   -2.01353  -13.08426
       O   -12.39278   -2.17145  -13.40936
      H1   -12.09901   -1.42783  -13.94482
       H   -12.26105    5.62486  -10.37185
       O   -12.03215    5.40126  -11.29175
      H1   -12.89982    5.28301  -11.73962
       H    -7.62672    1.66924  -11.79455
       O    -7.76908    0.72604  -12.05067
      H1    -8.70133    0.46534  -11.92049
       H    -7.36969   -2.51470  -18.47241
       O    -7.31939   -2.20450  -19.41541
      H1    -7.23300   -2.95117  -19.95490
       H    -3.26410    1.51680  -18.39352
       O    -3.80421    1.30723  -19.13633
      H1    -4.10101    2.16352  -19.48110
       H   -16.20383   -0.54375  -19.14690
       O   -15.26842   -0.62786  -18.96364
      H1   -15.32015   -0.53578  -18.02644
       H   -11.05971    3.59624  -11.73541
       O   -10.29889    3.09538  -12.08002
      H1    -9.52077    3.69635  -12.09221
       H   -11.77175    9.58902  -13.81192
       O   -11.83974    9.75879  -14.77785
      H1   -11.66683    8.90538  -15.23704
       H    -9.98674    2.74167  -10.12269
       O    -9.42459    2.62274   -9.33463
      H1    -9.91981    1.88382   -8.88918
       H    -6.83356   -2.23276  -12.21029
       O    -6.18609   -1.52791  -12.16197
      H1    -6.58259   -0.67009  -12.28225
       H   -10.23139   -3.05948  -15.86372
       O    -9.63859   -3.58489  -15.36771
      H1   -10.03054   -3.70120  -14.49641
       H   -10.51687    4.19826  -17.88329
       O   -10.07297    3.41782  -17.47934
      H1   -10.38297    3.14488  -16.57203
       H    -9.68637    0.31842  -19.13420
       O    -9.36430    1.23841  -19.20768
      H1    -9.59717    1.72608  -18.38381
       H    -7.47321    0.60643  -18.08009
       O    -6.77008    0.15158  -17.58319
      H1    -6.57109   -0.60428  -18.14435
       H   -15.18247    4.78020  -13.07435
       O   -14.37757    4.22173  -13.13370
      H1   -14.59979    3.57420  -12.47752
       H    -9.50021    2.22853  -14.85575
       O   -10.46117    2.41382  -14.86119
      H1   -10.50330    2.95549  -14.04486
       H    -3.52296    6.09608  -16.31815
       O    -3.99387    5.32487  -15.89743
      H1    -3.55140    5.31504  -14.97911
       H    -7.22500    4.85291  -16.84581
       O    -7.41642    4.16145  -16.18281
      H1    -8.27899    3.88157  -16.34225
       H    -8.69944    9.53306  -14.33395
       O    -8.62119    9.20530  -15.21866
      H1    -9.37218    8.62491  -15.18072
       H    -3.35531    2.28028  -15.88589
       O    -3.24726    2.78223  -16.68256
      H1    -3.51705    3.66733  -16.40958
       H   -11.11012   -1.75454  -17.97777
       O   -11.26354   -2.06965  -17.07969
      H1   -12.07309   -2.56386  -17.06511
       H   -13.56821    4.26232  -18.81496
       O   -13.84914    4.69117  -17.99881
      H1   -13.45489    4.22352  -17.21426
       H    -6.35655    1.91436  -18.73234
       O    -6.81099    2.37694  -19.46690
      H1    -7.62972    1.86344  -19.52013
       H   -17.82887    3.87271  -15.63524
       O   -17.77798    3.51968  -16.52617
      H1   -17.31399    4.31948  -17.01231
       H   -11.53147   -0.72109  -15.96360
       O   -11.79272   -0.06757  -15.31065
      H1   -11.20890    0.66495  -15.43571
       H    -8.05054   -2.87621  -15.73606
       O    -7.14923   -2.78862  -16.26846
      H1    -6.65361   -2.13553  -15.79233
       H   -13.09746    6.99429  -14.31010
       O   -12.63539    6.66452  -15.05764
      H1   -11.76110    6.62364  -14.66223
       H   -15.50992    3.10397  -15.92275
       O   -15.47085    2.45450  -15.20091
      H1   -14.97958    2.97913  -14.52398
       H    -6.62018    3.87992  -11.07402
       O    -6.93526    3.32602  -11.84552
      H1    -7.15255    3.98308  -12.54072
       H    -7.61269    4.57313  -14.51830
       O    -7.80096    5.19488  -13.78578
      H1    -7.11729    5.89632  -14.04860

