141
frame 1 | Written by MDAnalysis XYZWriter (release 2.4.3)
       H    -5.96793  -16.92472   11.77643
       O    -6.07964  -16.36979   10.93530
      H1    -6.57507  -16.83829   10.20785
       H    -8.81526  -18.38227    1.32012
       O    -9.28236  -18.94049    0.69265
      H1   -10.20713  -18.81744    1.01832
       H    -5.84409  -17.49162    6.68293
       O    -5.76379  -17.02407    5.83084
      H1    -6.04156  -17.66318    5.19552
       H    -9.84189  -16.33870    7.74117
       O    -9.87810  -16.93042    6.91964
      H1    -9.21447  -17.56955    7.00406
       H    -9.87169  -17.25241    2.55791
       O    -9.10101  -17.61074    3.00365
      H1    -9.33857  -18.48430    3.20054
       H    -7.44021  -12.00438    5.43479
       O    -7.16587  -11.60574    4.58761
      H1    -7.86233  -11.74232    3.95435
       H   -10.36750  -10.75896    9.61560
       O    -9.46235  -11.03423    9.34487
      H1    -9.59725  -10.94148    8.41922
       H    -8.22176  -12.15842   10.00550
       O    -7.54282  -12.62512   10.58494
      H1    -7.64442  -12.18688   11.49929
       H    -7.98792  -14.04656   11.95223
       O    -7.78847  -14.80466   12.44551
      H1    -7.35428  -15.39856   11.83449
       H    -9.23813  -19.35766    6.95777
       O    -8.29036  -19.17594    6.82138
      H1    -7.87770  -19.86476    6.19011
       H    -9.70944  -12.31331    3.93544
       O    -9.41235  -11.81721    3.15291
      H1    -9.00778  -12.42851    2.53454
       H   -11.72535  -14.66143    8.18848
       O   -11.15873  -15.04323    8.90047
      H1   -11.50788  -15.89852    9.05498
       H    -4.80048   -9.55769    6.91253
       O    -4.33907   -9.72246    6.06768
      H1    -4.63832  -10.55893    5.64576
       H    -3.85365  -17.31482    5.14436
       O    -2.90256  -17.39549    5.38186
      H1    -2.50485  -17.85816    4.66257
       H    -4.75797  -15.40171   10.33761
       O    -4.01757  -14.78352   10.05012
      H1    -3.14263  -15.19873   10.09115
       H   -11.59522  -10.08529    5.30174
       O   -11.87928  -10.08237    4.40405
      H1   -11.33181  -10.70661    3.91288
       H   -12.31858  -16.84749    2.75263
       O   -11.51845  -16.67966    2.19254
      H1   -11.70938  -15.93340    1.66269
       H   -11.17650  -13.37484    5.73628
       O   -10.33634  -13.05961    5.39588
      H1    -9.71439  -13.76917    5.35845
       H    -7.66882  -15.82783    3.12111
       O    -6.91007  -15.43988    2.65361
      H1    -7.15230  -15.62774    1.71123
       H    -5.36517  -11.84628    0.81857
       O    -5.74116  -11.84101    1.73908
      H1    -5.28122  -12.40804    2.34050
       H   -10.02243  -11.46514    6.29091
       O   -10.02301  -10.57533    6.66307
      H1    -9.39659  -10.02000    6.17500
       H    -8.07769  -18.08206   10.66706
       O    -8.81761  -17.54989   10.96098
      H1    -8.65627  -16.70191   10.55021
       H   -13.60737  -17.44440    6.75175
       O   -14.41856  -17.88849    7.10815
      H1   -14.27847  -18.78308    6.71259
       H    -6.84899  -18.67863    8.42143
       O    -6.29377  -17.96216    8.83116
      H1    -5.41731  -18.24149    9.01250
       H    -7.64827   -9.99007    4.87129
       O    -7.94014   -9.09591    5.23784
      H1    -8.65931   -8.74972    4.71419
       H    -2.53657  -17.58507    8.57251
       O    -3.45992  -17.39537    8.39381
      H1    -3.42027  -17.11914    7.46224
       H    -5.61553  -15.20137   -0.71294
       O    -4.95465  -14.69976   -1.19857
      H1    -4.14259  -15.24292   -1.07432
       H    -2.77339  -15.31114    6.07607
       O    -3.07878  -14.46170    5.84458
      H1    -3.94890  -14.58617    5.41363
       H    -5.88152  -12.98689    4.27297
       O    -5.15339  -13.63868    4.02405
      H1    -5.74295  -14.26251    3.52032
       H    -9.15089  -15.79768    5.88418
       O    -8.59117  -15.17832    5.40788
      H1    -7.75338  -15.69126    5.29741
       H    -5.11009  -18.63873    0.31400
       O    -4.33676  -18.48807    0.92867
      H1    -4.59193  -18.00278    1.74723
       H    -2.01052  -15.56803    0.69328
       O    -1.83649  -16.18594    1.44674
      H1    -1.68365  -15.59365    2.19043
       H   -12.03820  -14.58495   10.77924
       O   -11.98225  -14.28377   11.73104
      H1   -12.89207  -14.53191   12.09888
       H    -3.72402  -16.23629    2.21558
       O    -4.31771  -16.58377    2.90153
      H1    -5.17136  -16.18593    2.66563
       H    -7.25504  -16.52332   -0.73520
       O    -7.04521  -15.87723   -0.03315
      H1    -7.47191  -15.05110   -0.22693
       H   -10.22742  -20.08054    9.61574
       O   -10.49765  -19.16564    9.53183
      H1    -9.87477  -18.54299    9.85707
       H    -9.22069  -15.13120    9.16866
       O    -8.27802  -15.26560    9.34516
      H1    -7.87831  -14.40580    9.51490
       H    -7.41627  -12.23959    1.03280
       O    -8.04856  -12.94529    0.82713
      H1    -8.85680  -12.57496    0.40650
       H   -13.02484  -12.86801    7.09060
       O   -12.78922  -13.77992    6.80794
      H1   -13.48974  -14.17973    6.28563
       H    -1.92036  -13.33488    3.15369
       O    -1.69244  -14.21513    3.46883
      H1    -2.30289  -14.35749    4.23447
       H   -15.16532  -14.08489    4.71052
       O   -14.61609  -14.79684    5.12683
      H1   -15.16506  -15.11777    5.83858
       H    -4.13415  -13.91135    8.64922
       O    -4.38219  -13.36106    7.90472
      H1    -3.71258  -13.61857    7.23389
       H   -12.02863  -18.16543    9.65107
       O   -12.50799  -17.35718    9.87024
      H1   -13.42481  -17.37399    9.60361
       H    -7.04776  -13.59223    7.09129
       O    -7.12316  -12.60694    7.04144
      H1    -6.28672  -12.34149    7.44846
       H    -5.52776   -9.94433    2.05369
       O    -5.35468   -9.03201    2.10298
      H1    -5.43480   -8.71976    3.01293
       H   -14.29721  -17.38073    3.31379
       O   -13.55046  -17.37356    3.93776
      H1   -13.60692  -16.45564    4.29371
       H    -5.75819  -11.68559    9.92084
       O    -5.07232  -11.32401    9.27347
      H1    -4.75390  -12.14302    8.75137

