141
frame 6 | Written by MDAnalysis XYZWriter (release 2.4.3)
       H     8.22972   -0.32514   -0.29798
       O     8.33978   -1.23838   -0.46723
      H1     9.02579   -1.67213    0.08399
       H    11.47171   -2.39587   -0.33078
       O    11.55562   -2.28252   -1.31484
      H1    12.46344   -2.53691   -1.45899
       H     7.07646    4.13386    3.89587
       O     7.23217    3.16579    3.98391
      H1     6.87870    3.01303    4.87961
       H    13.77583    4.89482    2.22049
       O    13.88033    4.24823    1.49769
      H1    14.21905    3.49117    2.00256
       H    13.35962    9.27334    2.54354
       O    13.25578    8.49340    1.99515
      H1    13.63838    8.77456    1.12012
       H    11.18030    7.99754   -3.19323
       O    11.49039    8.31675   -2.35615
      H1    10.82820    8.01368   -1.71340
       H    10.97225    3.93499   -1.94668
       O    11.47976    4.73662   -2.05610
      H1    12.41298    4.62082   -1.82405
       H    14.32131    2.84130    5.50795
       O    13.85530    2.40106    4.74979
      H1    13.35224    1.67516    5.10968
       H    12.85159    3.82295    4.34076
       O    12.38898    4.64638    4.66901
      H1    11.54599    4.73452    4.23668
       H     9.73567   -1.68226    4.14900
       O     9.46375   -0.81115    3.78751
      H1     8.52096   -0.86714    3.49510
       H    10.14251    6.39409    5.26554
       O     9.55856    5.79381    4.82410
      H1     9.82456    4.91215    4.94995
       H     6.18096    2.90194    0.43378
       O     6.56062    3.55619   -0.19195
      H1     5.79880    3.98619   -0.51441
       H    15.02659   -1.53033   -2.61231
       O    15.64918   -0.75882   -2.41649
      H1    15.26161   -0.31791   -1.64409
       H    12.47004    7.29429    6.30202
       O    12.46853    7.78434    5.45178
      H1    11.60214    8.21668    5.35823
       H    14.54371    0.20036    0.44122
       O    14.39903    0.71051   -0.37103
      H1    14.95963    1.48498   -0.30014
       H    15.96379    2.63430    3.33131
       O    16.56692    2.05714    2.86369
      H1    16.10713    1.28105    2.51919
       H    10.30359   -1.70320    2.03949
       O    10.34613   -2.26112    1.21804
      H1    10.47886   -3.17044    1.48560
       H    13.42170    0.27818    7.50749
       O    13.62303   -0.45439    6.87940
      H1    14.33657   -0.13405    6.31970
       H    10.89574    6.36703    1.62496
       O    11.02583    5.45776    1.39496
      H1    11.58325    5.46877    0.62909
       H     6.97210    0.59481    6.00924
       O     7.15257    1.51373    6.23699
      H1     8.05601    1.58404    6.54754
       H    16.03825    6.92712    6.32317
       O    16.16215    7.11607    5.34598
      H1    15.38948    6.76593    4.83902
       H     7.86493    6.04905    4.09918
       O     6.96661    5.92898    3.77803
      H1     6.99419    6.01295    2.76970
       H     8.54539    7.55074   -1.51126
       O     9.28119    7.29572   -0.96121
      H1     8.91284    6.59934   -0.36810
       H     7.30283    1.48011    1.43917
       O     6.44136    1.55626    1.86338
      H1     6.64065    2.14606    2.56278
       H    10.70590    1.61129   -1.94423
       O    10.15628    2.38935   -1.90261
      H1     9.44843    2.13255   -2.46506
       H    12.96203    0.61276   -1.51865
       O    12.10127    0.43348   -1.90053
      H1    11.74664   -0.37180   -1.42918
       H    12.25906    2.04458    1.05674
       O    11.58541    2.31309    1.67390
      H1    11.75040    3.24680    1.82662
       H    13.28432   -1.97729    3.55698
       O    12.74837   -1.56074    2.89137
      H1    12.42113   -0.83130    3.41261
       H    13.95208    6.97324    3.03922
       O    14.21869    6.15158    3.42882
      H1    13.57594    6.05898    4.15021
       H    16.72446    3.28810   -0.57999
       O    15.94558    2.99427   -1.09341
      H1    16.11440    3.25995   -2.00507
       H    13.55179    1.28786   -5.11449
       O    12.76054    0.76302   -4.83391
      H1    12.61843    0.98839   -3.94438
       H    12.47288    5.34118   -3.68487
       O    13.17130    5.41756   -4.36417
      H1    13.68052    6.25421   -4.28430
       H     7.41110    1.57359   -2.77333
       O     7.18533    1.53213   -1.81594
      H1     6.92325    2.46585   -1.54895
       H     9.81748   -1.23865    7.21530
       O     9.18206   -0.53675    6.89254
      H1     9.11500   -0.53861    5.91912
       H    15.31891   -1.53019    1.59390
       O    14.95816   -0.66826    1.89513
      H1    14.19621   -0.91538    2.38710
       H    12.08767    6.46433    8.47259
       O    12.66119    6.41993    7.68154
      H1    12.55109    5.47518    7.46487
       H    16.92179    4.66897    1.79933
       O    16.92904    5.30463    2.49293
      H1    17.58926    5.18555    3.16224
       H    11.93526    3.91714    6.51777
       O    12.08586    3.79979    7.48843
      H1    11.22873    3.50829    7.87920
       H    16.50996    0.40474    6.00826
       O    15.80056    0.13356    5.45144
      H1    16.04871    0.75209    4.74046
       H    10.33831    8.76906    1.92302
       O    10.63283    7.96160    2.37912
      H1    11.59424    8.12019    2.27876
       H    15.29333    8.10071   -0.36272
       O    14.36037    8.13146   -0.51322
      H1    14.05309    7.38407   -1.01134
       H    10.79109    0.25210    3.92049
       O    11.58944    0.77087    3.89020
      H1    11.61461    1.21247    3.02708
       H    14.83695    4.49396   -1.12386
       O    14.12487    5.15111   -1.21920
      H1    13.87836    5.13694   -0.27220
       H     8.10505    4.81518    0.27167
       O     8.36898    5.56430    0.82131
      H1     9.22316    5.36252    1.21838
       H    10.46156    2.05043    4.36319
       O    10.00281    2.90021    4.54024
      H1     9.15132    2.81113    4.14952
       H     8.99925    5.59995   -3.17370
       O     8.80775    5.93725   -4.07337
      H1     7.92877    6.35181   -4.02219
       H     8.94664    1.94569   -0.25623
       O     8.86910    1.71274    0.67400
      H1     9.69727    2.00764    0.99605

