141
frame 2 | Written by MDAnalysis XYZWriter (release 2.4.3)
       H    -4.77562    4.68867    9.49634
       O    -4.76922    4.82710   10.49559
      H1    -4.62953    3.93180   10.81390
       H    -6.78482   -0.04501   12.86042
       O    -5.99284    0.15509   12.24553
      H1    -5.38807   -0.58095   12.37756
       H    -1.75958   -3.23654   12.46337
       O    -2.11488   -2.39675   12.22749
      H1    -1.53322   -1.75842   12.64920
       H    -0.71973    4.66762   13.83643
       O    -0.98516    4.84954   14.75694
      H1    -0.15620    4.85929   15.25501
       H    -7.65213    3.22041    7.49021
       O    -7.21155    3.93024    7.02332
      H1    -7.12793    3.61988    6.14429
       H    -4.48161    3.58022   17.50774
       O    -3.50569    3.58153   17.36340
      H1    -3.38865    4.25407   16.67166
       H    -1.56313    5.21139   10.19451
       O    -1.87989    4.28937   10.19377
      H1    -2.84766    4.54916   10.40720
       H    -7.50693   -3.55264   13.13536
       O    -6.63573   -3.55023   13.71364
      H1    -6.19147   -4.37152   13.41542
       H    -0.71965   -0.62591   14.13081
       O    -0.90165   -0.15100   13.33689
      H1    -1.48254    0.62983   13.58194
       H    -8.25524    1.63787   11.28643
       O    -8.79257    1.84639   12.09829
      H1    -9.67480    1.60816   11.84521
       H    -7.72379    2.46358   14.15405
       O    -6.82445    2.61016   14.41807
      H1    -6.49851    3.48961   14.12237
       H    -0.53940    7.35505   10.23818
       O    -1.41421    6.89398   10.19584
      H1    -2.08642    7.33242   10.66328
       H    -7.27622    7.46014   11.55522
       O    -6.96221    6.92084   10.85077
      H1    -6.72918    7.60722   10.16103
       H     0.07831    0.69215   16.34726
       O     0.18047    1.61183   16.18016
      H1    -0.30159    1.99317   16.91365
       H    -7.86774    4.79157   12.79661
       O    -8.79932    4.55417   12.58156
      H1    -8.82896    3.62977   12.47894
       H    -4.57911    0.57739    7.02171
       O    -4.67122   -0.36811    7.19317
      H1    -5.58416   -0.46363    6.94089
       H    -3.49914    8.30278   11.97981
       O    -3.69298    7.86068   11.15583
      H1    -3.89857    6.93075   11.40092
       H    -7.99248    3.02567    9.45664
       O    -7.86518    2.07743    9.20305
      H1    -6.95424    1.87404    9.16442
       H    -6.76408    7.54283   15.19430
       O    -5.91302    7.48311   14.74414
      H1    -5.24408    7.45306   15.42227
       H    -7.93967   -1.64186   17.57943
       O    -8.12581   -0.92275   16.95687
      H1    -7.24179   -0.74327   16.61585
       H    -5.31135    4.27830    7.24439
       O    -4.54560    4.27323    7.81209
      H1    -3.75052    4.21098    7.33267
       H    -3.78407   -2.19761   13.05471
       O    -4.59547   -1.85782   13.38157
      H1    -5.27434   -2.57479   13.31779
       H    -5.24278    2.03015   15.19022
       O    -4.30989    1.89532   15.48217
      H1    -4.06269    2.57630   16.09144
       H    -2.49901    5.78411   15.23480
       O    -3.33791    5.98781   15.69282
      H1    -3.21259    6.96532   15.90143
       H    -4.58000    2.82454    6.68064
       O    -5.02640    2.35925    5.93987
      H1    -4.55960    2.77480    5.18661
       H    -3.11815   -2.70565   10.29985
       O    -3.02656   -3.51117    9.77902
      H1    -3.79199   -3.65114    9.26504
       H    -6.08016    6.02642   13.77981
       O    -6.18155    5.17505   13.35676
      H1    -5.81570    5.37554   12.47626
       H    -1.53529    4.14973    7.92786
       O    -1.61255    3.87741    6.97936
      H1    -1.13510    4.67171    6.58908
       H    -8.72564    4.61405   10.74278
       O    -8.52884    4.62710    9.77436
      H1    -7.73855    5.19901    9.80768
       H    -7.27379   -0.66203   14.34122
       O    -7.94114   -0.82489   13.69018
      H1    -8.67903   -0.28411   14.13005
       H    -7.93312    1.99867   17.92760
       O    -7.22765    2.40204   18.40283
      H1    -7.68648    3.13876   18.80421
       H     0.31740    1.85539    8.71971
       O     1.11617    2.24073    9.11610
      H1     1.74317    1.54201    9.21918
       H    -7.26283    0.74574    7.45643
       O    -7.52362   -0.06210    6.96399
      H1    -8.48794   -0.23062    6.99093
       H     0.26337    1.04475   12.02865
       O     0.98966    1.67443   11.91970
      H1     0.95767    2.00974   10.99899
       H   -10.50101    0.79970   15.16403
       O    -9.57288    0.62295   15.14266
      H1    -9.37145    0.24113   16.00532
       H    -5.19099   -1.05620   14.93598
       O    -5.72992   -0.54754   15.58458
      H1    -5.38470    0.37941   15.52256
       H    -5.75737   -2.74765    7.80005
       O    -5.34144   -3.49899    8.26222
      H1    -5.31754   -4.10827    7.51301
       H    -9.90571   -2.61297   11.48026
       O   -10.54367   -1.94818   11.04059
      H1   -10.02044   -1.17415   11.14815
       H   -12.16096    1.41296   11.41671
       O   -11.41644    0.91179   11.78162
      H1   -11.47814    1.14615   12.69863
       H    -3.21222   -0.60212   17.97124
       O    -3.63535   -1.19127   17.31314
      H1    -4.31066   -0.59537   16.96960
       H    -1.13142    1.90377    6.82121
       O    -0.97706    0.96394    6.91232
      H1    -0.63576    0.76205    5.99894
       H    -1.77136    2.75054   14.04998
       O    -2.27446    2.06077   13.57346
      H1    -2.97035    1.87456   14.24683
       H    -7.46863   -0.87713    9.48402
       O    -7.30555   -1.49536   10.16641
      H1    -6.61232   -1.08107   10.63572
       H    -6.70966    3.40633   17.27513
       O    -6.37108    4.18394   16.75610
      H1    -6.80926    4.14480   15.89228
       H    -3.42871    2.27275   12.48360
       O    -4.31966    2.42649   11.96105
      H1    -4.91148    1.66746   12.21052
       H    -0.73332    4.02987   11.54020
       O    -0.13463    4.03821   12.34212
      H1     0.30544    3.17589   12.36868
       H    -4.81417    0.63203    8.79946
       O    -5.19335    1.41133    9.25257
      H1    -4.81533    1.57103   10.18873

