141
frame 11 | Written by MDAnalysis XYZWriter (release 2.4.3)
       H   -17.13499    7.41757    8.99921
       O   -16.64614    7.75652    9.79434
      H1   -17.23713    7.47377   10.53042
       H   -16.23416    5.20625   19.17130
       O   -15.37990    5.78575   19.24632
      H1   -15.17322    6.17446   18.37034
       H   -10.25246    6.27504   12.80253
       O   -10.45803    5.77842   13.60175
      H1   -11.19919    5.25156   13.35239
       H   -13.51961   10.63280   11.70597
       O   -14.24877   10.25902   12.20138
      H1   -15.07657   10.65691   11.94005
       H    -8.81007   11.00078   13.52522
       O    -9.45348   11.70599   13.54938
      H1    -8.87079   12.53117   13.46694
       H   -11.75211   13.70542   14.10461
       O   -11.90955   12.79234   13.96264
      H1   -11.14280   12.42950   13.61072
       H   -13.60703    9.82937    7.35463
       O   -12.97127    9.10813    7.50963
      H1   -12.93707    9.03263    8.45511
       H   -12.22105    6.97899    9.47140
       O   -12.17538    6.49910    8.64919
      H1   -12.39278    7.00421    7.87546
       H   -13.60049   11.97797   16.74658
       O   -13.85955   12.47171   15.93348
      H1   -13.03687   12.52024   15.38547
       H   -13.78709    1.79802   10.81060
       O   -13.12751    1.94235   10.16610
      H1   -13.07406    1.11190    9.66450
       H   -11.12788    1.68534   14.43766
       O   -10.96138    2.55620   14.16518
      H1   -11.32538    3.10272   14.85946
       H   -15.10610    7.30225   10.93285
       O   -14.47649    7.64962   11.57386
      H1   -14.77867    8.48409   11.89593
       H   -15.66062   13.36729   15.03029
       O   -16.29879   13.93770   14.58478
      H1   -16.98501   14.04674   15.23487
       H   -15.93524   10.89925    9.31061
       O   -15.49414   10.15850    8.83603
      H1   -15.84156    9.32327    9.12468
       H   -15.51875    2.48662   13.44602
       O   -16.02277    3.01241   14.07775
      H1   -15.71452    3.94824   13.93054
       H    -8.55353    5.55523   18.63337
       O    -9.21168    5.11157   19.12823
      H1    -9.52225    5.71667   19.82813
       H    -9.35369    7.11058   10.95306
       O    -9.73715    7.49215   11.73237
      H1    -9.24647    8.31782   11.86730
       H   -17.51624    6.24163   16.46959
       O   -16.54892    6.23626   16.57889
      H1   -16.26896    6.32208   15.67796
       H   -11.48036    7.43580   17.12435
       O   -12.16785    7.71168   17.72637
      H1   -12.11334    7.09169   18.46276
       H   -14.40423    0.81065   12.64377
       O   -14.64624    1.62489   12.18904
      H1   -15.43307    1.36119   11.70589
       H   -16.06241    7.85466   17.82213
       O   -15.82052    8.68644   18.24871
      H1   -15.81930    9.37643   17.51885
       H   -13.17047    7.55563   15.53490
       O   -13.16464    7.30095   14.59040
      H1   -13.10396    6.35554   14.57740
       H   -16.74533   10.36847   14.56721
       O   -17.58180   10.83641   14.59340
      H1   -17.64723   11.25642   15.46565
       H   -14.50505   10.48453   15.17065
       O   -14.93619    9.61472   15.30788
      H1   -14.39708    9.06178   14.70319
       H    -7.39089   10.47444   16.83486
       O    -7.62793    9.70265   17.29415
      H1    -7.47415    9.85786   18.18600
       H    -7.64668    3.82661   11.17926
       O    -8.31089    3.27363   10.77247
      H1    -9.08740    3.52773   11.26054
       H   -17.43850    9.06827   18.82315
       O   -18.35895    9.03792   19.17439
      H1   -18.98413    9.20748   18.47112
       H   -16.27431   12.45138   11.78401
       O   -16.80790   11.61471   11.86072
      H1   -17.21895   11.76149   12.75146
       H   -13.63955    4.31150   15.85144
       O   -12.71751    4.44548   15.50003
      H1   -12.16713    4.58288   16.23732
       H   -12.99360    9.83474   17.93514
       O   -12.62325   10.70956   17.80264
      H1   -11.85007   10.47662   17.18427
       H   -16.39215    6.15040   13.21542
       O   -15.63965    5.77623   13.74373
      H1   -14.95350    6.45690   13.65193
       H   -10.32318    8.33971   15.74578
       O   -10.07802    7.43660   15.89951
      H1   -10.26566    6.95781   15.11024
       H    -7.35155    7.02661   14.77656
       O    -6.98712    7.06512   13.85307
      H1    -6.00807    7.05065   13.94175
       H   -10.18018   10.95977   15.58615
       O   -10.41094   10.29145   16.22095
      H1    -9.65065   10.32262   16.82920
       H   -11.92570    2.65577   11.12303
       O   -11.16103    2.90412   11.64168
      H1   -11.12928    2.61074   12.56456
       H   -19.22250    7.79655   15.17964
       O   -18.51173    8.15123   14.59592
      H1   -18.44764    9.11673   14.66883
       H    -7.30586    8.67442   12.72081
       O    -7.92601    9.42684   12.68096
      H1    -7.50724   10.18490   12.25757
       H    -8.86373    3.66703   14.92943
       O    -8.08326    3.71626   15.53860
      H1    -8.04444    4.68086   15.70376
       H   -18.21925    6.39505   12.03226
       O   -17.71566    7.26126   12.27028
      H1   -17.95020    7.70463   13.08918
       H   -10.26643    6.16930    9.17500
       O    -9.36830    6.44927    9.37697
      H1    -8.86916    5.65261    9.41417
       H   -12.98701    8.06440   11.27103
       O   -12.12600    8.43855   10.96296
      H1   -11.34318    8.05761   11.40413
       H   -15.96988    4.59586   16.67319
       O   -15.30118    3.81286   16.50022
      H1   -15.55109    3.39762   15.61101
       H   -11.31789    3.23942   17.83414
       O   -11.55012    4.14615   18.08195
      H1   -10.71720    4.45945   18.43230
       H   -16.10679    2.06768   16.92478
       O   -15.99301    1.11549   17.22347
      H1   -15.22116    1.07526   17.82267
       H    -7.24433    6.71869   17.20088
       O    -7.79419    6.36105   16.44999
      H1    -8.59092    6.90015   16.34136
       H   -19.03594    9.63661   10.54661
       O   -19.38610    9.16855   11.28363
      H1   -18.60404    8.65821   11.58281
       H   -12.58878   11.72322   10.16656
       O   -11.81264   11.18109   10.40886
      H1   -12.00795   10.22961   10.48934

