141
frame 3 | Written by MDAnalysis XYZWriter (release 2.4.3)
       H    10.25103   -3.84922   16.37892
       O    10.26205   -4.16096   17.31681
      H1    10.17232   -5.13815   17.30038
       H     6.22668    4.03943   10.65852
       O     5.48756    3.37780   10.70989
      H1     5.80646    2.45759   10.88508
       H    12.75141    4.40305   17.88287
       O    11.91875    3.96665   18.18310
      H1    11.88034    3.13506   17.71969
       H     3.90370   -3.12409   13.73164
       O     4.45895   -3.94156   13.64213
      H1     3.91849   -4.66447   13.93792
       H     7.87438   -2.03394   11.16816
       O     7.58057   -1.51836   10.42295
      H1     7.09903   -2.24462    9.98473
       H    12.05092    2.36367   13.38689
       O    12.49970    1.68782   13.94478
      H1    13.15457    1.25679   13.40502
       H    13.04816   -3.65093   13.74259
       O    12.41260   -3.08065   13.31534
      H1    12.56240   -3.16701   12.33484
       H     6.26326   -4.52320   16.05761
       O     6.70434   -4.36968   15.22649
      H1     5.95724   -4.04694   14.66728
       H     4.32065    3.09638   14.15576
       O     4.38113    2.14097   14.44037
      H1     4.04618    2.10073   15.33944
       H    12.98487   -2.01179   14.82690
       O    13.32790   -1.86484   15.71674
      H1    12.71010   -1.43801   16.28935
       H     4.16810   -0.50055   16.82156
       O     4.23713   -0.66422   15.87232
      H1     5.19479   -0.93680   15.83614
       H     8.51585   -6.51847   12.91026
       O     7.97496   -6.21587   12.10048
      H1     8.58301   -6.34639   11.35242
       H     8.73468    4.32649   19.24239
       O     9.35827    3.64512   18.89286
      H1    10.21076    4.06725   18.72060
       H     8.94333   -7.17333   17.54778
       O     9.83955   -6.75645   17.80143
      H1    10.49032   -7.25852   17.28855
       H     2.74336   -1.07298   13.14201
       O     2.68810   -1.75595   13.84731
      H1     3.16766   -1.41159   14.58794
       H    10.14347    1.12059   12.57554
       O     9.52307    0.34426   12.53024
      H1     8.71043    0.79336   12.75808
       H     1.12352   -1.09735   14.47354
       O     0.26699   -0.89431   14.87645
      H1     0.03026   -1.60868   15.49897
       H     6.05160    1.58215   14.08176
       O     6.89286    1.48231   13.57028
      H1     6.52954    0.91041   12.90918
       H     2.41742    1.92587   19.51984
       O     2.73520    1.76548   18.66004
      H1     3.64556    2.12264   18.61096
       H     7.27398    4.98128   15.47559
       O     6.81614    5.70130   15.94711
      H1     5.85376    5.59642   15.71378
       H     7.60012   -2.31857   17.46946
       O     8.19265   -2.63834   18.12734
      H1     8.74317   -3.32121   17.77744
       H     9.35823   -0.42138    7.98895
       O     9.01592    0.20028    8.65010
      H1     8.55646   -0.26796    9.35890
       H    12.16772   -4.09085   17.80271
       O    13.10663   -4.04379   17.64181
      H1    13.27728   -3.77260   16.70490
       H     8.45794   -4.37049   12.05357
       O     8.62740   -3.40836   12.20399
      H1     8.80793   -3.30350   13.14631
       H     5.14782   -4.83705   12.26053
       O     5.35330   -5.46668   11.54115
      H1     6.23946   -5.79857   11.76954
       H     4.57065   -6.54577   12.90218
       O     3.94668   -7.13885   13.35276
      H1     4.51798   -7.92105   13.33505
       H     4.56727   -7.89771   18.15395
       O     3.86202   -7.27685   18.01521
      H1     4.26967   -6.45949   17.60782
       H    12.18439   -0.94157   10.18995
       O    11.96351   -0.07771   10.64850
      H1    11.01251   -0.12877   10.85344
       H    13.27868   -0.71261   18.78767
       O    12.57191   -0.26397   18.30430
      H1    11.74945   -0.73394   18.52692
       H     1.07694    2.64413   16.05564
       O     2.02385    2.77950   16.13895
      H1     2.27083    2.45755   17.09393
       H     6.19792    0.08274   10.83054
       O     5.57813    0.70395   11.23635
      H1     4.69060    0.28489   11.33730
       H     5.91813    2.03751   18.06714
       O     5.36116    2.63789   18.56987
      H1     5.70823    2.48170   19.44785
       H     1.45991   -3.03433   18.26080
       O     1.92561   -3.20806   19.06899
      H1     2.00180   -2.34053   19.48111
       H     8.95384    4.11922   14.04682
       O     7.95573    4.29117   13.85223
      H1     7.56097    3.40632   13.94131
       H    10.23588    1.93800   17.94684
       O    10.78117    1.64659   17.20555
      H1    11.53214    1.12670   17.52758
       H     7.34178   -0.98152   15.68112
       O     6.70944   -1.61899   16.09928
      H1     6.83972   -2.44790   15.63036
       H     3.80010   -4.36301   16.82589
       O     4.60999   -4.71766   17.19295
      H1     4.95237   -4.02467   17.79697
       H    14.58154    1.43487   16.52024
       O    13.94610    2.14391   16.28097
      H1    13.41415    1.69253   15.57941
       H     5.32508   -6.97626   15.05161
       O     6.25200   -6.84155   14.76905
      H1     6.40432   -5.86349   14.86960
       H    10.33473    3.54780   11.61351
       O    10.90046    3.27135   12.30371
      H1    11.59318    3.89507   12.43646
       H     3.01170    1.59151   13.09919
       O     2.96295    0.85283   12.43948
      H1     2.12086    0.97218   11.94676
       H     9.70837   -0.02628   14.14754
       O     9.69797   -0.41085   15.05899
      H1    10.06808    0.31615   15.60546
       H     7.02809   -7.56246   16.28132
       O     7.36866   -7.84992   17.17791
      H1     6.65218   -8.29219   17.66996
       H     9.34308   -3.98979    9.25594
       O     9.90154   -4.09437   10.04588
      H1     9.49169   -3.55927   10.81667
       H     1.40401   -5.27575   16.38334
       O     2.03528   -4.94217   15.71354
      H1     1.77999   -4.02211   15.70472
       H    10.61987   -3.31925   14.07318
       O     9.86702   -3.05212   14.60670
      H1     9.87240   -2.12731   14.78597
       H     4.91615   -2.43659   20.00686
       O     5.11771   -2.44398   19.10295
      H1     5.89676   -1.86804   19.00261

