141
frame 8 | Written by MDAnalysis XYZWriter (release 2.4.3)
       H    18.39391   -8.88869   -8.70745
       O    18.29026   -9.68830   -8.20542
      H1    17.89418   -9.50823   -7.30631
       H    12.43083   -2.47656   -0.44819
       O    12.98970   -2.09589   -1.13101
      H1    13.48990   -2.84403   -1.55686
       H    11.71410   -8.63611   -9.82082
       O    11.89296   -8.38367   -8.92242
      H1    12.83564   -8.44670   -8.70546
       H    18.36248   -5.68976   -4.20216
       O    19.19939   -6.13787   -3.94498
      H1    19.40343   -6.02561   -3.03862
       H    14.14777   -4.79506   -3.20172
       O    14.27704   -4.31282   -2.35194
      H1    14.02013   -4.93320   -1.63667
       H    13.39463   -1.71181   -8.65858
       O    12.65273   -1.42364   -8.05116
      H1    12.25385   -0.74634   -8.62896
       H    13.50944    0.92446   -6.40974
       O    14.01374    0.77756   -7.14823
      H1    13.48619    0.20078   -7.67950
       H    14.85508    3.20669   -5.80794
       O    14.57766    3.07623   -4.82930
      H1    13.89615    3.72601   -4.60170
       H    17.62781  -12.04610   -4.46114
       O    16.98752  -11.47808   -3.90703
      H1    16.81659  -10.79148   -4.60186
       H    16.37621   -5.04002  -11.21004
       O    15.76504   -5.72949  -11.51849
      H1    16.24259   -6.57871  -11.43943
       H    15.28012   -1.23982   -3.78883
       O    15.85865   -0.92646   -3.07475
      H1    15.28063   -0.28272   -2.54761
       H    19.03603   -1.84332   -8.39217
       O    19.89563   -1.60137   -8.84457
      H1    20.05709   -2.24450   -9.57844
       H    14.57747    0.49475   -0.58531
       O    14.42690    0.78891   -1.48553
      H1    14.56487    1.73821   -1.60966
       H    11.49326   -4.71865   -9.77051
       O    11.21276   -5.14097  -10.59262
      H1    11.41904   -4.62897  -11.33492
       H    14.61522   -8.03643   -1.88917
       O    15.32536   -7.61380   -2.39501
      H1    16.09570   -7.49065   -1.87069
       H    18.57271   -1.13203  -12.69487
       O    18.15247   -1.83627  -13.27589
      H1    18.93615   -2.34119  -13.49973
       H    14.54905   -2.79656  -10.65033
       O    14.46150   -3.17368   -9.72252
      H1    14.01574   -4.01712   -9.83236
       H    17.63196   -2.90513    0.07556
       O    16.71572   -3.11084    0.05772
      H1    16.46662   -3.18196   -0.89214
       H    12.45952   -9.45562   -6.39652
       O    12.98910   -8.80970   -5.91636
      H1    13.57135   -9.24059   -5.24334
       H    14.56361   -9.61568   -8.13945
       O    14.54703   -8.71178   -8.56089
      H1    14.79535   -8.24952   -7.74227
       H    16.87609   -4.60336   -3.64524
       O    16.74311   -5.00318   -4.49786
      H1    15.87454   -5.38288   -4.58532
       H    17.64569   -2.91717  -11.64564
       O    17.75096   -3.70613  -11.10389
      H1    17.41358   -3.40907  -10.23646
       H    14.74450   -6.98234   -5.86478
       O    15.47657   -7.27404   -6.41563
      H1    15.75266   -6.44365   -6.84096
       H    20.12892    2.55233   -8.26828
       O    19.64511    3.14768   -8.86648
      H1    18.99217    2.52378   -9.17131
       H    17.25907   -2.72735   -8.01259
       O    16.91793   -2.45798   -8.90050
      H1    16.05630   -2.84328   -8.84936
       H    13.08299    1.97662   -4.64945
       O    12.43545    1.32361   -4.85001
      H1    12.13540    0.91657   -4.02196
       H    18.27279   -2.94323   -2.52657
       O    17.37467   -3.29154   -2.62195
      H1    16.86003   -2.47451   -2.62710
       H    16.71214    3.39340   -4.49095
       O    17.34654    3.89721   -3.97610
      H1    18.16261    3.71943   -4.46294
       H    13.03842   -6.28303   -8.72366
       O    13.40575   -5.46338   -8.51747
      H1    12.67724   -4.95178   -8.02863
       H    16.55129   -6.30397    0.86667
       O    15.99780   -5.57865    1.16906
      H1    16.27066   -4.79317    0.68373
       H    11.16250   -2.33972   -4.14978
       O    11.95878   -2.81497   -3.76083
      H1    11.78493   -3.25944   -2.96072
       H    11.36720   -4.32188   -6.70031
       O    11.35796   -3.94554   -7.61117
      H1    11.83284   -3.08844   -7.55836
       H    16.16660   -9.25629  -11.40546
       O    16.31109   -8.50770  -10.82362
      H1    15.92688   -8.66937   -9.97928
       H    17.56397    0.36677   -5.61361
       O    17.68435    0.43361   -4.69758
      H1    16.85137    0.06870   -4.27046
       H    14.38988   -6.74821   -3.84487
       O    14.20874   -6.03076   -4.44743
      H1    13.27588   -6.03283   -4.68872
       H    18.90959   -6.98404   -9.52191
       O    17.96408   -6.90822   -9.52189
      H1    17.77051   -7.50173  -10.23853
       H    13.67716   -2.27226   -4.73074
       O    14.56960   -2.51975   -5.12443
      H1    14.58421   -3.48399   -5.19753
       H    13.91466   -6.33804  -11.63796
       O    13.11911   -6.80501  -11.68139
      H1    12.46183   -6.22805  -11.16719
       H    15.00991    3.02798   -8.11707
       O    15.95087    2.81367   -7.92295
      H1    16.11788    1.86980   -8.09972
       H    16.72637   -0.63368   -7.79751
       O    16.64537    0.08071   -7.21734
      H1    15.74184   -0.03851   -6.98119
       H    16.76844   -8.64216   -6.06237
       O    17.31946   -9.38023   -5.80253
      H1    18.00199   -9.01537   -5.25786
       H    18.41743    0.97645  -11.36480
       O    18.87886    0.48106  -12.02452
      H1    19.79632    0.64154  -12.00015
       H    15.76593   -1.72057  -12.56481
       O    15.02275   -1.78051  -11.87718
      H1    14.67887   -0.90979  -11.88422
       H    18.11468   -6.99810   -1.19139
       O    17.29176   -7.08204   -0.61690
      H1    17.35890   -7.95405   -0.14867
       H    10.91450   -4.43700   -4.59396
       O    11.14861   -5.14996   -5.28320
      H1    10.46912   -5.81228   -5.25770
       H    16.68062   -2.33073   -6.01484
       O    17.42728   -2.80772   -6.40061
      H1    17.50106   -3.62817   -5.90850
       H    16.74424   -5.93391   -8.81589
       O    16.30093   -5.33245   -8.17795
      H1    15.36094   -5.39547   -8.23373

