141
frame 11 | Written by MDAnalysis XYZWriter (release 2.4.3)
       H    -2.86640    4.46842   11.37567
       O    -3.44940    3.68350   11.29839
      H1    -4.16864    3.84532   11.92134
       H    -7.66179    1.58704   11.73979
       O    -7.29505    0.80550   12.25876
      H1    -6.74335    1.33889   12.87055
       H   -10.25246    6.27504   12.80253
       O   -10.45803    5.77842   13.60175
      H1   -11.19919    5.25156   13.35239
       H   -10.74907   -0.38595   12.47591
       O   -11.07146   -0.86166   13.24851
      H1   -10.77282   -0.56650   14.09080
       H    -4.05309   -3.22588   11.65053
       O    -4.29555   -2.42732   12.11349
      H1    -3.43486   -1.90233   12.10177
       H   -11.12788    1.68534   14.43766
       O   -10.96138    2.55620   14.16518
      H1   -11.32538    3.10272   14.85946
       H    -0.48304    3.30467   13.35976
       O    -0.98894    3.33768   14.18395
      H1    -0.32054    2.98204   14.81410
       H    -8.55353    5.55523   18.63337
       O    -9.21168    5.11157   19.12823
      H1    -9.52225    5.71667   19.82813
       H    -3.21151    2.18964   17.25311
       O    -3.56398    3.07841   17.47314
      H1    -3.05924    3.75925   16.96608
       H    -0.82725    3.76976    9.67021
       O    -1.37334    3.59056    8.85944
      H1    -2.12823    3.10819    9.32062
       H    -9.35369    7.11058   10.95306
       O    -9.73715    7.49215   11.73237
      H1    -9.24647    8.31782   11.86730
       H    -1.66926   -0.30665   12.60127
       O    -2.53545   -0.52318   13.00054
      H1    -2.85850    0.29144   13.32172
       H    -9.28844    0.65085   10.60396
       O   -10.20796    0.41572   10.84949
      H1   -10.55961    1.27975   11.00596
       H    -7.59628   -0.33426   15.66902
       O    -7.03356    0.34361   16.13726
      H1    -6.92679    0.95596   15.45399
       H    -2.20808    6.51409   10.77962
       O    -2.15745    5.94748   11.61215
      H1    -2.83413    6.34725   12.24691
       H    -4.58104    5.83569    9.23500
       O    -4.79136    6.51617    9.91863
      H1    -5.49842    7.07824    9.57049
       H    -7.64668    3.82661   11.17926
       O    -8.31089    3.27363   10.77247
      H1    -9.08740    3.52773   11.26054
       H    -5.59735    5.23327   18.39446
       O    -5.53376    4.47373   18.96208
      H1    -4.98499    3.86241   18.40644
       H    -1.66166   -1.49506   14.53568
       O    -2.06580   -1.93938   15.29280
      H1    -3.05964   -2.04774   15.20397
       H    -7.98810    3.53728    8.97718
       O    -8.04147    3.75080    8.04048
      H1    -7.15707    3.85158    7.61655
       H    -4.05388    7.83085   10.77119
       O    -3.93387    8.76873   11.10298
      H1    -3.10900    8.75791   11.62427
       H   -10.32318    8.33971   15.74578
       O   -10.07802    7.43660   15.89951
      H1   -10.26566    6.95781   15.11024
       H    -3.22078   -1.57867   10.01516
       O    -2.30733   -1.42254    9.78284
      H1    -2.01945   -2.15136    9.21507
       H    -7.35155    7.02661   14.77656
       O    -6.98712    7.06512   13.85307
      H1    -6.00807    7.05065   13.94175
       H    -8.36282   -1.51933   18.91667
       O    -8.87981   -1.62091   18.14595
      H1    -8.93380   -0.87204   17.54788
       H   -11.92570    2.65577   11.12303
       O   -11.16103    2.90412   11.64168
      H1   -11.12928    2.61074   12.56456
       H    -4.51752   -2.76421   13.89993
       O    -4.55166   -3.19930   14.77453
      H1    -5.39517   -2.91365   15.14709
       H    -6.27558    6.08473   10.92881
       O    -6.98448    5.77396   11.49755
      H1    -6.82861    6.20935   12.34530
       H    -5.66354   -2.73584    9.25128
       O    -5.05685   -2.11034    8.91635
      H1    -5.36151   -1.25279    9.15976
       H    -3.58771   -0.10987   17.09994
       O    -2.79276    0.30068   16.81176
      H1    -2.33215   -0.46224   16.38452
       H    -1.64210    5.60037   15.87347
       O    -2.41345    5.47729   16.37288
      H1    -2.53567    6.36471   16.68495
       H    -7.30586    8.67442   12.72081
       O    -7.92601    9.42684   12.68096
      H1    -7.50724   10.18490   12.25757
       H    -8.86373    3.66703   14.92943
       O    -8.08326    3.71626   15.53860
      H1    -8.04444    4.68086   15.70376
       H    -0.48647    6.18478   12.73904
       O     0.26610    6.28788   13.30450
      H1    -0.05310    6.82646   14.12498
       H   -10.26643    6.16930    9.17500
       O    -9.36830    6.44927    9.37697
      H1    -8.86916    5.65261    9.41417
       H    -8.31224   -2.73572   15.13793
       O    -7.70422   -2.78106   15.92143
      H1    -8.17646   -2.39682   16.67942
       H    -2.52931    2.29712   14.32492
       O    -3.19818    1.58551   14.38122
      H1    -3.11104    1.23643   15.33262
       H    -6.84869   -0.02686    9.15424
       O    -6.19288    0.34050    9.71254
      H1    -6.49793    0.29415   10.63204
       H    -4.13399    7.09057   14.36119
       O    -3.75480    7.14090   13.47845
      H1    -3.40224    8.03623   13.40824
       H    -5.39879   -0.61058   18.57901
       O    -5.31162   -0.98237   17.66946
      H1    -6.02892   -0.51052   17.25628
       H    -4.99012    2.37648   14.40992
       O    -5.75474    2.72900   13.87976
      H1    -6.32733    3.21319   14.53237
       H    -1.83433    2.75361   11.53150
       O    -0.88079    2.67961   11.33070
      H1    -0.79134    1.83451   10.88844
       H    -7.24433    6.71869   17.20088
       O    -7.79419    6.36105   16.44999
      H1    -8.59092    6.90015   16.34136
       H    -4.08203    2.62407   10.02066
       O    -4.10048    2.31288    9.11115
      H1    -4.71013    1.51159    9.11365
       H    -5.83810    8.56977   16.10054
       O    -5.06784    8.04774   15.86805
      H1    -4.32195    8.34365   16.46010
       H    -5.38179    7.33924   17.40030
       O    -5.67500    7.11062   18.28476
      H1    -5.25559    7.64237   18.94220
       H   -10.93263   -0.34735   16.85920
       O   -10.67560   -0.97697   16.14781
      H1   -11.34966   -1.64473   16.14707

