141
frame 6 | Written by MDAnalysis XYZWriter (release 2.4.3)
       H    17.95361   15.23725    2.17351
       O    17.41682   15.62868    1.51463
      H1    16.96350   14.93601    0.99270
       H    17.67182    6.33562    5.08357
       O    18.55657    6.09081    5.33172
      H1    19.15936    6.66433    4.92716
       H    16.20783   12.27317    4.17347
       O    16.48408   12.63832    3.32494
      H1    16.71230   11.88457    2.81615
       H    14.36139   16.38394    2.69728
       O    14.66118   15.52695    2.31398
      H1    15.61831   15.58748    2.37019
       H    13.35962    9.27334    2.54354
       O    13.25578    8.49340    1.99515
      H1    13.63838    8.77456    1.12012
       H    17.46961   11.22975   -2.69401
       O    16.92189   10.67181   -3.33362
      H1    15.97141   10.71700   -3.12368
       H    15.79634   13.11879    1.53350
       O    16.25199   13.29012    0.69144
      H1    15.49439   13.13498    0.04335
       H    14.08729   18.41109   -0.38390
       O    14.84902   18.62882   -0.95856
      H1    14.86288   18.02049   -1.64083
       H    14.42574   16.99929    8.74221
       O    14.33524   16.85817    9.70742
      H1    15.21753   16.46191    9.80766
       H    14.33520    9.96467    9.52931
       O    14.91929    9.42310   10.15960
      H1    15.26110    8.67804    9.57613
       H    13.27994   18.10927    4.12879
       O    14.17198   18.06423    3.65199
      H1    14.74653   18.73615    4.10508
       H    18.41336   15.99158    0.08152
       O    18.90544   16.39877   -0.64733
      H1    18.60019   17.32197   -0.57716
       H    12.47004    7.29429    6.30202
       O    12.46853    7.78434    5.45178
      H1    11.60214    8.21668    5.35823
       H    18.69561    9.68690    1.53438
       O    18.74223    9.66421    2.48430
      H1    19.32092    8.94491    2.72235
       H    17.18538    9.72193    3.42291
       O    16.47330    9.77447    4.05972
      H1    16.21393    8.84029    4.14614
       H    16.63580   14.63375    9.06410
       O    16.67250   15.47471    9.53624
      H1    16.97714   15.16772   10.44886
       H    19.00577   10.87967   -0.49742
       O    19.02045    9.94678   -0.31979
      H1    18.35811    9.55143   -1.01335
       H    11.18611   11.16965   -1.06763
       O    11.46035   10.95380   -1.97555
      H1    11.50996    9.95825   -2.02214
       H    17.55537   10.94312    5.34715
       O    17.80024   11.74072    5.87079
      H1    18.74691   11.60729    6.07281
       H    16.03825    6.92712    6.32317
       O    16.16215    7.11607    5.34598
      H1    15.38948    6.76593    4.83902
       H    14.26696   17.79824    6.59517
       O    14.89306   17.17661    6.91528
      H1    15.78424   17.62381    6.77635
       H    13.27709   15.81650    0.83087
       O    12.34731   16.11597    0.64979
      H1    12.30226   17.06425    0.74496
       H    10.62540   14.51371    5.15974
       O    11.01598   13.66711    4.90209
      H1    11.72756   14.03529    4.33245
       H    12.26430   15.13938   -0.92557
       O    12.36699   14.34713   -1.49508
      H1    11.63124   14.45935   -2.07945
       H    17.79935   17.46371    3.16533
       O    17.47447   18.14707    3.72347
      H1    16.51229   18.18376    3.40458
       H    16.66099   11.89429    9.24776
       O    16.20053   12.35768    8.53481
      H1    16.84650   12.26202    7.82915
       H    13.95208    6.97324    3.03922
       O    14.21869    6.15158    3.42882
      H1    13.57594    6.05898    4.15021
       H    14.54607   13.30257    6.21747
       O    14.30373   12.55948    5.69115
      H1    13.74116   12.02013    6.23413
       H    18.20397   13.28590   -1.93923
       O    17.95999   12.52995   -1.44212
      H1    17.45624   12.65427   -0.61647
       H    14.34531   11.81214    8.75973
       O    13.65308   11.17734    8.44778
      H1    14.19623   10.70982    7.82037
       H    13.81439    8.89357    6.26497
       O    14.57008    9.34036    6.72779
      H1    15.30256    9.24493    6.09410
       H    10.32975   11.44982    7.76860
       O     9.74445   11.56441    6.95752
      H1    10.27572   12.04596    6.34763
       H    11.82024   17.21833    7.86338
       O    11.92582   17.10220    6.88939
      H1    11.45123   16.26453    6.74191
       H    10.33831    8.76906    1.92302
       O    10.63283    7.96160    2.37912
      H1    11.59424    8.12019    2.27876
       H    17.87784   10.54779    9.71380
       O    17.31541   10.88117   10.49284
      H1    16.54689   10.35661   10.45706
       H    18.49177   14.69185    5.01051
       O    18.34813   14.56177    4.09842
      H1    17.70444   13.81192    4.12869
       H    17.51110   16.90797    8.79657
       O    18.22048   17.45360    8.29156
      H1    17.77041   18.22227    7.76075
       H    11.53850   12.62858    1.15236
       O    11.02410   12.28772    0.42598
      H1    11.37325   12.86421   -0.27830
       H    15.29333    8.10071   -0.36272
       O    14.36037    8.13146   -0.51322
      H1    14.05309    7.38407   -1.01134
       H    13.32804   10.49511   -2.62956
       O    14.26706   10.24031   -2.50523
      H1    14.14938    9.52202   -1.81758
       H    15.75848   15.54509    6.75592
       O    16.17786   14.67187    6.72439
      H1    16.56955   14.61958    5.82677
       H    13.63482   12.93869   -1.47036
       O    14.21957   12.32685   -0.97328
      H1    14.37424   11.48092   -1.52382
       H    10.78296   15.24943    0.73764
       O     9.86258   14.97738    0.88808
      H1     9.80751   14.15920    1.41746
       H    14.68366   10.50702    3.36145
       O    13.80677   10.85582    3.54923
      H1    14.05896   11.71328    3.99671
       H    13.41809   13.86203    2.64654
       O    12.89264   13.10296    2.34014
      H1    13.21823   12.30206    2.78676
       H    10.12664   13.09284    3.13252
       O     9.48763   12.65436    2.57638
      H1     9.95395   12.26582    1.75941
       H    17.30843    6.82676    1.10407
       O    17.28746    7.48847    0.45392
      H1    17.26981    6.85824   -0.34977

