141
frame 4 | Written by MDAnalysis XYZWriter (release 2.4.3)
       H    -1.55818   17.00369   -3.64326
       O    -2.09790   16.72708   -2.90540
      H1    -1.95106   17.39112   -2.23290
       H     0.30940   14.25010   -3.23630
       O     0.17013   14.91874   -2.52793
      H1    -0.44093   15.59378   -2.90865
       H    -2.20749   13.46874    2.32226
       O    -2.44227   14.33172    2.69401
      H1    -3.29634   14.62860    2.35751
       H     3.34977   18.68895   -3.63036
       O     3.34571   19.29834   -2.83098
      H1     2.43396   19.65040   -2.91053
       H     2.28342   19.69093   -0.03994
       O     2.08617   18.74824    0.11752
      H1     1.18330   18.68167    0.49446
       H    -4.82839   18.45829    4.61695
       O    -5.66307   18.00377    4.39339
      H1    -5.61706   17.88639    3.41596
       H    -2.82790   20.10580    2.77662
       O    -1.97866   19.65929    2.80412
      H1    -1.99207   18.93181    3.40767
       H    -1.20132   17.89265   -5.22666
       O    -0.38714   17.33778   -5.08819
      H1     0.18352   17.97567   -4.62406
       H     0.75771   12.68949   -0.21260
       O     1.34402   12.00816   -0.51820
      H1     2.21244   12.34795   -0.80622
       H     3.75946   19.62586    4.00196
       O     4.05159   18.70812    4.00376
      H1     4.17164   18.35551    3.04086
       H    -1.66447   16.07566    9.05574
       O    -1.49723   16.73096    8.41442
      H1    -1.17600   16.13158    7.69483
       H     3.20237   18.17315    5.69657
       O     3.00105   17.91800    6.60569
      H1     2.15276   18.20997    6.76448
       H     2.62483   16.93043   -2.38890
       O     2.95255   16.11499   -2.77064
      H1     3.88953   15.99953   -2.50729
       H     1.20320   18.74538    3.94422
       O     1.14684   17.79752    3.94333
      H1     1.99042   17.39859    3.83238
       H     4.74619   14.21452    1.75305
       O     4.46197   14.65324    0.95996
      H1     4.24879   15.52457    1.17357
       H    -7.60557   16.32961   -2.00934
       O    -6.72681   16.37012   -1.53642
      H1    -6.37581   15.49052   -1.25152
       H    -4.56426   16.20732   -5.27323
       O    -4.88892   17.13597   -5.33214
      H1    -4.94000   17.41166   -4.36759
       H     1.97400   13.75447    4.74996
       O     2.14796   14.11312    5.61624
      H1     2.36917   13.36256    6.16325
       H    -0.77921   15.64616    2.12828
       O    -0.00157   16.18155    1.99390
      H1     0.14333   16.78846    2.67830
       H    -0.14222   14.76497    0.41418
       O    -0.55043   14.04646   -0.05403
      H1    -0.34063   14.28747   -1.00039
       H     6.05319   18.25898   -1.27179
       O     5.54686   19.11424   -1.14477
      H1     4.65915   19.15044   -1.55427
       H    -5.64198   14.69075    2.36810
       O    -4.95793   15.24289    1.91428
      H1    -5.32593   16.15695    1.74700
       H    -0.99606   19.11174    1.37355
       O    -0.51645   18.64465    0.69600
      H1    -0.61338   17.69124    0.84469
       H    -0.72799   15.19229    5.94408
       O     0.00251   15.60899    6.40946
      H1     0.86515   15.12833    6.16737
       H    -1.46870   11.43249    3.44919
       O    -1.14352   11.80728    2.58169
      H1    -1.06153   11.09782    1.94377
       H    -3.39033   12.26682    0.65542
       O    -3.04231   12.61632   -0.18963
      H1    -2.17863   12.99505    0.08002
       H     2.81549   17.38548   -5.74938
       O     3.48773   17.45111   -5.03601
      H1     3.35052   16.73936   -4.42347
       H    -1.54535   18.85038   -0.60223
       O    -2.25340   18.76912   -1.31966
      H1    -2.93963   19.34237   -0.92651
       H     2.23738   12.51947    2.63278
       O     2.68493   11.90532    1.99223
      H1     2.18584   12.02403    1.20668
       H     6.48349   18.27422    0.74016
       O     6.69102   17.33987    0.65466
      H1     6.88687   16.82295    1.44367
       H    -5.28744   13.23143   -1.33822
       O    -5.55858   14.04041   -0.94012
      H1    -5.00714   14.19971   -0.17181
       H     1.29825   18.07947   -6.68917
       O     2.10327   17.92613   -7.22556
      H1     2.39535   18.90014   -7.32762
       H     0.31565   18.35616    8.14861
       O     0.20478   18.66758    7.24653
      H1    -0.20925   17.95613    6.76808
       H     2.41678   14.32917   -3.00827
       O     2.17843   13.68670   -3.66959
      H1     2.35248   14.30915   -4.41096
       H    -6.47147   17.60805    1.25226
       O    -5.53693   17.83227    1.61075
      H1    -5.11091   18.55282    1.08898
       H     4.83297   17.34749    0.70216
       O     4.10917   17.34148    1.34448
      H1     3.30113   17.66727    0.92838
       H    -3.83459   17.48786   -2.56615
       O    -4.66552   17.92723   -2.72947
      H1    -5.32755   17.44833   -2.19739
       H     0.77398   15.74078   -5.94804
       O     1.38707   15.03717   -6.20975
      H1     0.90362   14.27106   -5.99331
       H    -2.98965   19.41337   -5.26635
       O    -2.73575   18.54677   -5.60467
      H1    -3.51025   17.97380   -5.50855
       H    -7.43978   17.02515   -0.19205
       O    -7.95451   17.22428    0.64917
      H1    -8.39690   18.05948    0.45194
       H     0.61951   13.20355    2.79810
       O     1.28339   13.84618    2.98304
      H1     0.92080   14.70565    2.76658
       H    -0.60331   17.41338    5.09278
       O    -1.49398   17.67917    5.26485
      H1    -2.04468   16.82649    5.14612
       H    -4.26756   13.99777   -3.89368
       O    -3.64340   14.56768   -4.29717
      H1    -3.26171   15.05364   -3.54114
       H     4.26690   13.41352   -0.60904
       O     3.97565   12.77277   -1.28146
      H1     4.79686   12.48366   -1.71150
       H    -5.41781   16.52233    5.36084
       O    -5.28723   15.74539    5.91766
      H1    -5.14007   16.17494    6.77088
       H     5.47888   18.58757    4.83758
       O     6.12784   18.57399    5.57882
      H1     6.84051   18.04530    5.12616
       H    -3.74619   15.48527    5.29498
       O    -2.77332   15.32495    5.14133
      H1    -2.57977   15.00614    4.29455

