141
frame 2 | Written by MDAnalysis XYZWriter (release 2.4.3)
       H     9.02771    4.61482   -8.48168
       O     9.84429    4.70386   -7.95943
      H1     9.65715    4.41739   -7.05123
       H    12.46930    3.86095   -6.54301
       O    12.36027    3.92187   -5.55530
      H1    13.18715    4.43177   -5.30425
       H    13.81782    1.27261   -9.89635
       O    13.09087    1.17783   -9.22092
      H1    12.60158    0.40152   -9.51145
       H    15.98555    2.84646   -3.13512
       O    15.20231    3.15693   -3.63843
      H1    15.51829    4.00090   -4.04972
       H    11.48837    8.15843   -1.34906
       O    11.61165    9.04153   -0.99035
      H1    10.86767    9.19442   -0.39160
       H    10.45320    2.99040   -2.33878
       O    11.09677    3.25650   -1.71211
      H1    11.79644    3.69704   -2.13218
       H    15.36160    4.53936   -5.98170
       O    15.85406    5.05581   -5.33582
      H1    16.50655    5.67271   -5.73915
       H     9.73253    0.23086   -7.30055
       O     9.12777    0.94061   -7.24082
      H1     8.46657    0.85532   -8.01559
       H     5.16637    3.41005   -7.70314
       O     4.89555    2.78480   -8.42759
      H1     4.32715    2.09508   -8.01282
       H    12.80263   10.85697   -3.18793
       O    12.65357    9.90507   -3.39885
      H1    12.07689    9.67994   -2.70865
       H    10.33744    4.89627    1.17932
       O    10.36160    3.92909    0.92530
      H1    10.67409    3.77191    0.01560
       H     6.94986    5.74171   -8.97469
       O     7.28973    5.04797   -9.54178
      H1     6.52690    4.69939   -9.95985
       H     9.53767    8.40557   -8.36097
       O     9.91993    7.98241   -9.15903
      H1     9.57042    7.10321   -9.13595
       H    11.60561    9.85559   -7.40599
       O    11.12047   10.29054   -8.10652
      H1    10.62395   10.99066   -7.67657
       H     9.64369    1.07618   -3.75113
       O    10.21842    0.65799   -3.11983
      H1    11.11031    0.80492   -3.39868
       H    14.40913    1.31165   -1.38453
       O    14.18095    0.58883   -2.03264
      H1    13.43592    0.09884   -1.58116
       H    12.23370    1.79302    0.15672
       O    11.67385    1.48927    0.87406
      H1    11.36251    2.29874    1.27432
       H     8.13328    2.28288  -11.10401
       O     8.82313    2.74639  -11.61880
      H1     9.00267    3.45380  -11.04704
       H    12.94499    2.25477   -4.64463
       O    12.69797    1.37348   -4.23908
      H1    13.31456    1.43327   -3.47648
       H     5.10866    3.89479   -5.39657
       O     5.81784    3.69605   -6.03233
      H1     6.38085    3.01088   -5.66045
       H     9.34465    8.74054   -6.40762
       O     8.59283    9.02269   -6.93592
      H1     8.00267    8.23132   -6.99896
       H    11.97232    5.91832   -1.90819
       O    11.14953    6.43222   -2.07197
      H1    11.44851    6.75755   -2.93341
       H     9.51961    4.81105   -4.53278
       O     9.99533    4.96947   -5.38167
      H1    10.89891    4.53478   -5.30465
       H     5.83547    6.90004   -7.33931
       O     6.74856    7.05434   -7.67883
      H1     6.69447    7.98809   -7.97010
       H     7.62849    2.05535   -3.06836
       O     7.16377    1.49730   -2.47340
      H1     7.74301    1.28058   -1.71141
       H    10.78836    6.41800  -10.96066
       O    11.50884    5.83935  -10.60880
      H1    11.94169    6.43797  -10.02156
       H     8.67601   -1.71164   -1.97458
       O     9.34662   -1.89246   -2.62063
      H1     9.86607   -1.09974   -2.76417
       H    12.76467    9.56547   -5.11610
       O    13.37707    9.35052   -5.80995
      H1    13.67756    8.47716   -5.64208
       H    12.64104    0.43647   -5.95534
       O    12.29212    0.11180   -6.76295
      H1    12.86204    0.64700   -7.34236
       H    14.38888   -0.41124   -3.50821
       O    14.81686   -1.02951   -4.04871
      H1    14.01051   -1.50828   -4.42190
       H     7.34431    6.07129   -2.78181
       O     6.65376    6.58588   -2.41642
      H1     7.09968    7.42463   -2.41640
       H    14.21087    3.29739   -7.81950
       O    15.01804    3.44851   -7.26635
      H1    15.26834    2.48910   -7.06156
       H    16.30100    3.98312   -8.10172
       O    17.15992    4.26461   -8.53154
      H1    17.11470    3.83892   -9.46206
       H    15.62237    0.08762   -6.85971
       O    15.44859    0.65858   -6.09160
      H1    15.28824    0.04027   -5.35805
       H    15.53082    6.52358   -0.22880
       O    14.69781    6.80442   -0.51849
      H1    14.28578    6.05946   -0.97802
       H    14.11132    9.18533   -2.57924
       O    14.75867    8.49100   -2.61391
      H1    14.64000    8.06665   -1.73478
       H    14.89962    6.35959   -4.68035
       O    13.98531    6.74469   -4.58667
      H1    14.12943    7.45700   -3.94972
       H    11.52940    3.81877   -8.25405
       O    12.35673    3.36894   -8.15672
      H1    12.48738    2.66200   -8.82480
       H     7.46129   -0.13885   -4.68693
       O     7.88485   -1.01046   -4.87544
      H1     8.41312   -1.29844   -4.15997
       H    11.87683    8.16625   -8.65320
       O    12.65328    7.67897   -8.96729
      H1    13.20203    7.39581   -8.18902
       H     8.68650    1.84133   -5.73857
       O     8.43543    2.48725   -5.10920
      H1     8.83597    3.30306   -5.47866
       H    16.06987    6.94101   -8.91288
       O    15.25626    6.55269   -8.58561
      H1    15.27804    5.69086   -8.88661
       H    10.49427    6.84174   -5.54777
       O    10.98101    7.65025   -5.76829
      H1    11.26181    7.64706   -6.73399
       H    14.13880    4.51284   -2.31107
       O    13.46523    4.85107   -1.75828
      H1    13.34473    4.36181   -0.91307
       H     7.30066    3.57577   -0.25610
       O     7.92744    4.30776   -0.26610
      H1     8.78753    3.94438    0.02893
       H     9.57226    5.17622   -2.57651
       O     8.85572    4.64888   -3.00261
      H1     8.21145    4.70678   -2.31097
       H     9.97014    0.94127   -1.36449
       O     9.32408    1.02497   -0.64755
      H1     9.89046    1.22348    0.13556

