141
frame 0 | Written by MDAnalysis XYZWriter (release 2.4.3)
       H    -5.01980   -3.70446  -10.88101
       O    -4.72808   -4.28919  -10.12987
      H1    -4.31058   -3.66930   -9.44958
       H    -7.39464   -8.69981  -16.54436
       O    -7.44619   -9.49237  -17.10123
      H1    -7.50155   -9.28217  -18.03562
       H    -4.60491  -11.55554  -15.55230
       O    -4.14332  -12.30393  -15.23847
      H1    -3.72839  -12.66640  -16.05155
       H    -6.21436  -11.36417  -11.60552
       O    -6.13655  -11.10326  -12.52338
      H1    -5.26809  -10.66824  -12.49483
       H    -4.55515   -2.51455  -15.40142
       O    -3.70263   -2.99795  -15.70190
      H1    -3.26640   -3.04262  -14.85025
       H    -0.05430  -10.13620  -11.38171
       O     0.50589   -9.86368  -12.13776
      H1     1.24152  -10.43021  -11.97291
       H     1.50521   -6.26215  -12.55962
       O     1.31219   -5.51933  -13.22156
      H1     0.88535   -5.87621  -14.03287
       H    -0.54037   -8.58141  -11.58172
       O    -1.30112   -8.17704  -11.06502
      H1    -1.72357   -7.47348  -11.68501
       H    -1.39146  -11.12561  -17.95573
       O    -0.77676  -11.82956  -17.69414
      H1    -0.92996  -12.42997  -18.48413
       H    -4.64827  -14.66096  -12.35658
       O    -5.04551  -13.91138  -11.89514
      H1    -4.77432  -13.28495  -12.57837
       H     1.80237   -8.31147  -11.90810
       O     2.35532   -7.53832  -11.58656
      H1     3.31288   -7.71722  -11.75886
       H    -4.52783   -9.46897  -16.08652
       O    -4.89256  -10.01365  -16.79549
      H1    -5.83622   -9.74599  -16.92451
       H    -5.07211  -13.80101  -15.78834
       O    -5.76109  -14.44318  -15.94154
      H1    -6.01722  -14.32579  -16.85321
       H    -9.08934  -12.58334  -14.48933
       O    -9.99248  -12.45181  -14.81109
      H1    -9.91149  -11.83048  -15.54537
       H    -1.47730   -3.57461  -12.31044
       O    -1.89280   -3.59736  -13.24370
      H1    -1.72153   -4.49804  -13.55485
       H    -4.16926   -7.60624  -10.79920
       O    -4.54713   -8.37137  -10.40180
      H1    -5.51260   -8.22264  -10.55661
       H     0.50042  -11.02421  -18.38263
       O     1.21653  -10.58418  -18.86710
      H1     1.87781  -10.37822  -18.17619
       H    -6.88614  -13.57278  -14.79239
       O    -7.49040  -13.11574  -14.20429
      H1    -6.92765  -12.62584  -13.57768
       H    -7.37891   -9.44734  -11.88261
       O    -7.98030   -8.71404  -12.06353
      H1    -7.47074   -7.95154  -12.40702
       H    -7.88193   -8.02076  -10.42423
       O    -7.45833   -7.79679   -9.57027
      H1    -7.54046   -6.85433   -9.41398
       H    -3.27266   -5.90085  -17.31334
       O    -4.02874   -5.36850  -17.18957
      H1    -3.75525   -4.57462  -16.68356
       H    -2.12335  -13.08028  -17.42650
       O    -3.04910  -13.34994  -17.38309
      H1    -3.21523  -14.22376  -17.79474
       H    -4.19597  -13.43330  -10.41892
       O    -3.62515  -13.07050   -9.69917
      H1    -4.10376  -12.96618   -8.89361
       H     1.27690  -14.30257  -14.10801
       O     1.83162  -13.61539  -14.50422
      H1     1.29130  -12.83156  -14.63471
       H    -6.60237   -6.55864  -17.15682
       O    -7.05235   -6.83446  -16.35440
      H1    -7.83549   -6.22314  -16.21393
       H    -2.92042  -10.47345  -19.31237
       O    -2.59731   -9.94882  -18.52137
      H1    -3.41615  -10.03836  -17.99609
       H    -1.20559  -14.24255  -11.19673
       O    -1.31421  -14.74271  -12.03266
      H1    -1.66826  -14.06156  -12.56900
       H    -0.62043   -9.62029  -15.14716
       O    -0.92671   -9.05548  -14.42883
      H1    -0.29792   -9.41342  -13.77823
       H    -1.63364  -10.85130  -10.33344
       O    -0.71898  -10.80085   -9.94748
      H1    -0.34970  -11.69807   -9.82942
       H    -4.17170   -8.41535  -14.11026
       O    -3.95214   -9.37003  -14.06382
      H1    -2.97869   -9.31571  -13.87163
       H    -6.42681  -12.78148  -18.55057
       O    -6.93788  -12.52036  -17.78322
      H1    -6.43447  -11.86755  -17.30276
       H    -5.90971   -7.12022   -8.14139
       O    -5.42472   -7.54736   -7.44604
      H1    -5.30475   -8.41682   -7.81789
       H    -3.44018   -9.87125  -10.87033
       O    -3.21403  -10.81450  -11.15523
      H1    -3.42092  -11.39983  -10.35466
       H    -2.97864   -5.56492  -11.21743
       O    -2.95044   -6.24263  -11.93575
      H1    -2.98563   -5.70708  -12.74965
       H    -4.64969   -6.43767  -15.34713
       O    -4.74069   -6.91537  -14.48767
      H1    -5.68367   -6.89654  -14.34628
       H     2.38136   -6.93145  -15.82111
       O     1.66295   -7.50163  -16.04595
      H1     1.15902   -6.97869  -16.68007
       H    -6.40262   -2.78340  -13.09080
       O    -5.70496   -3.39134  -12.76893
      H1    -5.97703   -4.27670  -13.16677
       H    -5.51514   -5.17294  -18.12112
       O    -6.16513   -5.41854  -18.77548
      H1    -5.79653   -6.16101  -19.24720
       H    -7.53685   -5.53894  -12.59076
       O    -7.38932   -6.21038  -13.29618
      H1    -8.21426   -6.24398  -13.77370
       H    -2.87827  -12.18479  -13.98599
       O    -2.13615  -12.25607  -13.32105
      H1    -2.51407  -11.62239  -12.64111
       H    -8.72359  -11.86971  -17.80307
       O    -9.53270  -11.33109  -17.79652
      H1    -9.24343  -10.55807  -17.39018
       H    -1.37658   -8.03024   -8.90390
       O    -1.98759   -7.72789   -8.27558
      H1    -2.83755   -7.65754   -8.73742
       H    -2.28825   -8.11989  -17.86195
       O    -1.91282   -7.28884  -17.62133
      H1    -1.34197   -7.03438  -18.34961
       H    -1.39624   -6.53459  -15.17942
       O    -1.13759   -5.64999  -14.83599
      H1    -1.06684   -5.12192  -15.62135
       H    -7.32232  -13.01399   -9.83426
       O    -7.24414  -12.13615  -10.16105
      H1    -7.99556  -11.63186   -9.78944
       H    -0.66544  -11.67340  -14.52701
       O     0.05173  -11.60420  -15.17719
      H1    -0.17588  -12.08506  -16.00199
       H   -10.88548   -9.92870  -13.46711
       O   -10.40507   -9.19082  -13.88144
      H1    -9.61824   -9.06891  -13.26755

