141
frame 7 | Written by MDAnalysis XYZWriter (release 2.4.3)
       H    15.20912    1.97826  -18.19318
       O    15.87657    2.44755  -18.70863
      H1    15.98391    1.96805  -19.56025
       H     9.55941   -4.42895  -15.59991
       O     9.10230   -3.74014  -16.01615
      H1     8.44641   -3.46460  -15.33349
       H    13.74893   -1.19501  -15.93270
       O    14.00668   -0.30693  -15.74248
      H1    15.01332   -0.43831  -15.69321
       H    13.15792   -5.94081  -19.30863
       O    13.58670   -6.41483  -18.56170
      H1    14.40357   -6.00328  -18.41016
       H    13.36085    2.21963  -17.81284
       O    13.73954    1.96267  -16.96203
      H1    13.57873    0.99973  -16.84238
       H    12.92426    3.83844  -13.58776
       O    12.65663    4.02594  -12.68589
      H1    11.73455    4.03894  -12.77390
       H     9.05567   -1.01056  -19.59230
       O     9.24832   -1.41124  -18.72244
      H1     9.39272   -2.34419  -18.95122
       H    16.89439   -5.49193  -11.62089
       O    16.47306   -6.01115  -12.27721
      H1    16.34378   -6.91256  -11.93639
       H    10.79742   -0.73026  -17.64571
       O    11.47523   -0.29063  -17.13135
      H1    11.09349   -0.56543  -16.30231
       H    15.45974   -5.43210  -13.81887
       O    14.74581   -5.51662  -14.53773
      H1    13.86556   -5.79085  -14.07926
       H    12.27693   -5.09331  -17.20153
       O    11.80774   -4.41374  -16.70551
      H1    12.51624   -4.05638  -16.12416
       H    17.53811   -0.76410  -14.35988
       O    16.78486   -0.16372  -14.56805
      H1    17.14652    0.34356  -15.30135
       H    16.91289    4.87993  -17.86997
       O    17.77779    4.83131  -17.47319
      H1    18.29883    5.38732  -18.09195
       H    10.89896    6.66658  -16.21396
       O    11.55736    6.18286  -16.75258
      H1    11.84224    5.35274  -16.38604
       H    10.61041    1.33232  -16.65768
       O    10.10852    2.09014  -16.40294
      H1     9.64572    1.75096  -15.63490
       H    13.02590   -1.85251  -18.23181
       O    12.75660   -1.71535  -19.15700
      H1    11.80750   -1.75886  -19.11994
       H    14.39500   -3.35595  -15.45494
       O    13.99869   -3.07375  -16.26435
      H1    14.67337   -3.49932  -16.86126
       H    11.65539   -1.99589  -11.78712
       O    11.77408   -2.94316  -12.07136
      H1    12.71056   -2.97136  -12.17253
       H    17.88095   -1.76561  -12.28388
       O    18.01482   -2.40042  -13.03419
      H1    18.99361   -2.54334  -13.08012
       H    14.16684   -2.38136  -10.94310
       O    13.88065   -2.62215  -10.04112
      H1    13.86980   -3.52877   -9.97109
       H    16.66233   -5.04932  -17.59706
       O    16.05433   -4.30002  -17.73351
      H1    16.53619   -3.51189  -17.56278
       H    17.67361   -3.58808  -11.33158
       O    17.58594   -4.19549  -10.55782
      H1    17.18206   -3.72956   -9.79499
       H    15.20345    4.16659  -18.42471
       O    15.25319    5.07814  -18.46712
      H1    15.64829    5.35554  -19.34411
       H    18.45991    6.06998  -12.93768
       O    18.98143    5.47080  -12.36287
      H1    18.66252    4.58652  -12.54247
       H    19.06191   -2.33513  -15.80862
       O    18.53522   -2.84216  -16.46730
      H1    18.32857   -2.14897  -17.13624
       H    15.85231    2.81239  -13.56576
       O    16.00831    2.06794  -13.01845
      H1    16.23211    1.39425  -13.62039
       H    13.89733    0.52066  -14.20336
       O    13.65770    0.79797  -13.28083
      H1    14.52647    1.16558  -12.96332
       H    17.66224   -0.06806  -18.41029
       O    17.74147   -1.02915  -18.60334
      H1    17.38400   -1.10418  -19.50524
       H     9.06155   -0.08637  -14.41943
       O     8.69806    0.74979  -14.25128
      H1     8.92710    1.00421  -13.31400
       H    17.37126    2.35924  -10.08116
       O    17.06508    1.54450   -9.62461
      H1    16.40849    1.83130   -8.98775
       H    13.02628    3.24712  -15.76682
       O    12.28610    3.81763  -15.51776
      H1    11.53562    3.35737  -15.77507
       H    12.85760    1.00873  -20.18205
       O    12.20905    1.31423  -19.56093
      H1    12.24080    0.64421  -18.88157
       H    10.69654   -1.57489  -13.79026
       O    10.39106   -1.31203  -14.65908
      H1    10.10810   -2.20215  -15.02569
       H    14.21912   -6.32318  -11.68042
       O    13.34511   -5.99803  -12.07456
      H1    12.67379   -6.04376  -11.38754
       H    17.83897    5.76500  -15.89744
       O    17.85690    6.31805  -15.13858
      H1    18.65576    6.77464  -15.32507
       H    18.37551   -4.11676  -14.06872
       O    18.91193   -4.83523  -14.47806
      H1    18.54419   -5.64671  -14.12599
       H    16.50408   -7.51978  -16.26096
       O    16.12223   -7.72254  -15.39138
      H1    15.61633   -6.93069  -15.11818
       H    17.63606    0.04359  -10.47345
       O    18.15431   -0.68958  -10.94929
      H1    18.66407   -1.05007  -10.23590
       H    15.42826   -2.09711  -12.84587
       O    14.49341   -2.00272  -12.60813
      H1    14.20211   -1.09893  -12.76469
       H    15.92539    5.35842  -14.58796
       O    15.38539    4.59637  -14.33550
      H1    14.68577    4.84927  -13.77669
       H    11.39472    0.61863  -12.18555
       O    11.04971   -0.08461  -11.58709
      H1    10.40342    0.42229  -11.08320
       H    13.17596    2.72350  -11.07091
       O    13.53533    2.47138  -10.20655
      H1    12.95317    1.74700   -9.97527
       H    10.21672   -4.84270  -19.37675
       O    10.68533   -4.03677  -19.07042
      H1    11.15053   -4.19344  -18.23947
       H    16.67939    5.15782  -11.14372
       O    16.17316    4.46352  -10.66300
      H1    16.16157    3.69154  -11.27402
       H    18.78626    1.25472  -17.29892
       O    17.83671    1.35230  -17.10201
      H1    17.47634    2.04325  -17.68515
       H    18.66877   -6.00816  -16.67989
       O    17.96222   -6.13449  -17.30937
      H1    18.50647   -6.55346  -18.04495
       H    17.75093    2.17112  -12.28796
       O    18.46769    2.69238  -11.92040
      H1    19.26210    2.50833  -12.39562

