141
frame 9 | Written by MDAnalysis XYZWriter (release 2.4.3)
       H    -4.42875    5.08003   12.90129
       O    -4.35225    4.24465   12.31208
      H1    -4.29947    3.49098   12.90730
       H    -7.24054    2.00134   11.05425
       O    -6.57676    1.68087   11.64652
      H1    -6.29652    2.40740   12.12155
       H   -10.38409    6.78617   12.81087
       O   -10.67263    7.05388   13.68655
      H1   -11.35445    7.68288   13.62514
       H    -9.23078   11.06802   14.21853
       O    -9.52831   11.46350   14.99385
      H1    -8.80337   12.07055   15.27431
       H   -12.10725    1.40119   12.15945
       O   -12.39145    0.65406   12.70076
      H1   -11.95970    0.76021   13.58342
       H   -11.21912    2.17554   17.74109
       O   -10.41189    2.24347   17.18650
      H1    -9.72355    1.87620   17.84842
       H   -12.58645    4.17829   14.62425
       O   -11.81660    4.42959   14.11817
      H1   -11.76368    5.36349   14.34384
       H   -14.97152    3.25392   12.50847
       O   -15.40621    3.64934   13.23934
      H1   -15.45954    4.57052   12.96065
       H    -4.02966    2.56974   17.85116
       O    -3.50252    3.22464   18.29282
      H1    -3.22741    3.83742   17.56831
       H    -8.72435    8.14993   10.23017
       O    -9.16947    8.84830   10.69178
      H1    -8.69021    8.99721   11.53603
       H   -11.57818    9.37561   17.99301
       O   -12.40735    9.24460   18.49900
      H1   -12.88980    8.60834   17.89968
       H    -9.03635    2.60330    9.71605
       O    -9.17241    2.04687   10.48478
      H1    -9.90928    2.38358   11.02301
       H   -13.88787    8.90540   14.67692
       O   -13.15796    8.36593   14.32061
      H1   -13.03299    7.71627   15.05094
       H    -7.04093    1.56152   14.51669
       O    -6.73254    2.43947   14.96821
      H1    -7.39447    3.03046   15.13052
       H    -6.79530   10.39230   17.46376
       O    -7.07314    9.59310   17.97097
      H1    -6.84600    9.90164   18.88525
       H    -9.26263    4.84042   12.67016
       O    -9.88266    5.12762   11.95758
      H1   -10.33842    4.36579   11.64457
       H   -12.87588    2.64200   18.88914
       O   -12.60765    1.71384   18.69348
      H1   -12.80828    1.29696   19.59248
       H    -8.31218    4.83465    9.00040
       O    -8.26470    3.99027    8.51486
      H1    -7.53718    4.06753    7.94813
       H   -13.14395    5.82611   15.91162
       O   -12.58502    6.51690   16.27873
      H1   -11.84568    6.06533   16.73747
       H   -15.60445    6.50813   12.05700
       O   -15.11998    6.42182   12.91576
      H1   -14.53117    7.16829   13.03930
       H    -9.61902    8.22586   16.56309
       O    -9.32784    7.58646   15.93508
      H1    -9.91816    7.49065   15.17675
       H    -7.64730    7.22099   15.10271
       O    -6.73199    7.23323   14.77727
      H1    -6.14280    7.40721   15.52454
       H    -8.69856   -1.20048   17.30109
       O    -8.57359   -1.67263   16.44635
      H1    -7.73407   -2.20281   16.61146
       H    -8.76569    0.51266   19.36758
       O    -8.49237    1.46618   19.26205
      H1    -8.85633    1.75826   20.11461
       H    -9.72494   10.63109   16.72643
       O    -9.82689   10.00040   17.45465
      H1    -8.94330    9.68040   17.76361
       H   -12.22032    3.36255   11.24859
       O   -11.46325    2.99688   11.68894
      H1   -11.51917    3.24472   12.61094
       H    -5.85082   -2.14883   13.33791
       O    -6.25166   -2.18894   14.18630
      H1    -6.98024   -1.57766   14.20639
       H    -5.65442    6.30380   11.84132
       O    -6.54498    6.34229   12.23132
      H1    -6.42405    6.58382   13.20356
       H   -13.87225    4.73068   18.83105
       O   -13.13729    4.26746   19.21719
      H1   -12.33278    4.62982   18.81682
       H    -1.73232    4.40487   16.07668
       O    -2.57697    4.79453   16.25096
      H1    -2.33540    5.72685   16.24716
       H    -7.66025    9.53336   13.48064
       O    -8.14163   10.16577   12.97573
      H1    -7.45250   10.80699   12.87823
       H   -12.30371   -0.40169   17.75871
       O   -11.87323   -1.31237   17.77632
      H1   -11.83705   -1.56190   16.88175
       H    -9.92226    4.38305   14.85720
       O    -9.04356    4.48515   15.16595
      H1    -9.07461    5.23896   15.73949
       H    -9.00312    5.99149   10.67510
       O    -8.47819    6.32316    9.89424
      H1    -7.53869    6.14023   10.22682
       H   -12.34390    8.28791   10.18971
       O   -11.62770    8.71455    9.64834
      H1   -10.84737    8.74247   10.21763
       H    -7.12142    0.60444   12.75665
       O    -7.49775    0.21163   13.59123
      H1    -8.49817    0.39585   13.51464
       H   -14.76435    4.52833   16.42421
       O   -14.30486    3.96841   15.79459
      H1   -15.02214    4.01436   15.08953
       H   -10.59684    4.07290   17.37248
       O   -10.89411    4.96174   17.69797
      H1   -10.44413    5.15305   18.49218
       H    -4.62021    7.45186   13.84105
       O    -4.08560    7.20690   13.10836
      H1    -3.57432    8.01261   12.93660
       H   -14.72785    2.28572   16.87785
       O   -14.92511    1.37601   17.19934
      H1   -14.06117    1.27773   17.68851
       H    -5.62393    1.03259   17.61268
       O    -5.23225    1.26398   16.77335
      H1    -5.97941    1.63163   16.25224
       H    -3.44308    1.66926   14.43659
       O    -4.13563    1.89399   13.83494
      H1    -4.91985    2.04097   14.33882
       H    -7.59057    7.62916   18.65301
       O    -8.19198    6.92554   18.40099
      H1    -8.43702    7.11383   17.48064
       H    -4.45801    3.95788   10.54142
       O    -4.56840    3.59378    9.64491
      H1    -4.93913    2.73378    9.86251
       H    -4.44005    9.28601   15.97813
       O    -4.40835    8.36833   16.11639
      H1    -3.47065    8.10255   16.28717
       H    -4.78976    8.05126   18.33396
       O    -4.05091    7.85273   18.93546
      H1    -4.23618    8.24089   19.78041
       H   -10.37044    1.04586   15.53286
       O   -10.78389    0.62545   14.80043
      H1   -11.00527   -0.22069   15.14334

