141
frame 9 | Written by MDAnalysis XYZWriter (release 2.4.3)
       H     4.69938   12.07787   18.79711
       O     4.31364   12.46713   17.97781
      H1     5.08861   12.60767   17.42724
       H     6.86616    9.74833   10.69552
       O     7.08604    8.78844   10.51427
      H1     6.91875    8.70120    9.55588
       H     7.64285   18.89776   13.59834
       O     8.33933   18.47097   13.06880
      H1     9.06593   18.71318   13.62750
       H     5.74275   12.69281   14.86537
       O     6.16398   12.05232   15.48672
      H1     5.85152   11.16572   15.15421
       H     2.20976   15.97693   15.86666
       O     1.79391   15.64274   16.66058
      H1     2.45614   15.41279   17.26449
       H     6.95633   18.89431   15.54079
       O     6.58290   19.52167   14.92349
      H1     5.65181   19.72784   15.13354
       H     3.89195   14.52426   14.46018
       O     4.41494   13.75413   14.18840
      H1     4.24380   13.74276   13.25678
       H     7.26149   16.91607    7.66306
       O     7.37325   15.94319    7.73869
      H1     6.78244   15.62291    7.04589
       H    12.45563   11.63460    8.97998
       O    11.53048   11.76077    9.00901
      H1    11.33632   12.71807    9.11872
       H     4.84117   17.21988   11.98354
       O     4.37833   17.84564   11.36034
      H1     3.90588   17.25088   10.79005
       H     6.85520   16.80309   12.81085
       O     6.04123   16.28372   12.76532
      H1     6.16812   15.77290   11.94903
       H     6.65147   14.72641   14.64778
       O     7.47287   15.11257   15.04359
      H1     8.04355   14.33595   15.10072
       H     2.19026   15.84556    6.91126
       O     2.90946   16.46110    6.70022
      H1     2.53674   17.22655    6.31372
       H     9.74881   17.37019   11.95909
       O    10.30229   17.04413   11.26853
      H1    11.24491   17.19313   11.57148
       H    10.10899   18.36408    9.74465
       O    10.01699   18.92448    8.97558
      H1     9.09566   19.02978    8.85497
       H    11.30254   13.73566   16.21418
       O    11.44483   12.82291   16.47530
      H1    12.03306   12.53502   15.76931
       H     4.04307   12.45960    7.43642
       O     3.10599   12.33301    7.68227
      H1     3.16870   11.88682    8.55914
       H     0.86834   14.33234    6.29430
       O     0.96730   14.30207    7.27652
      H1     1.67037   13.64604    7.37802
       H     9.66446   12.58272   15.36075
       O     8.84243   12.71004   14.96231
      H1     8.14665   12.07983   15.27931
       H     7.01724   19.26266    8.81485
       O     7.26492   18.83983    7.98978
      H1     6.93464   19.37719    7.23142
       H     4.95809   13.71398   10.80158
       O     4.54076   13.11330   11.40263
      H1     3.96096   12.57823   10.84815
       H     0.50286   18.82821   13.42887
       O     0.15589   18.59534   14.31038
      H1     0.18593   17.61629   14.34464
       H     8.48044   16.17251    6.15294
       O     9.26986   16.12652    5.64872
      H1     9.11230   16.69412    4.84527
       H     0.45627   15.45072   11.72982
       O     1.34208   15.19972   11.98095
      H1     1.27439   14.28938   12.32266
       H     1.27931   18.63144   15.75777
       O     2.17371   18.57430   16.13890
      H1     2.13642   17.71430   16.62853
       H     9.31261   13.58528   18.53305
       O     8.83557   12.90630   18.01278
      H1     9.45376   12.71062   17.26768
       H     2.50145   15.39390   10.27876
       O     3.25352   15.86502    9.83254
      H1     2.94805   16.16418    8.92366
       H     5.85489   11.95967   11.44015
       O     6.48340   11.28688   11.58920
      H1     7.27682   11.78246   11.76961
       H     1.51920   12.38405   13.48285
       O     0.69063   12.89125   13.26730
      H1     0.22979   12.38358   12.60275
       H     9.25983   12.63378   13.07654
       O     9.28587   12.27569   12.17475
      H1     9.84474   11.54638   12.09677
       H     5.44998   12.68442    5.11906
       O     5.43929   12.88863    6.06555
      H1     5.99091   12.40788    6.62309
       H     6.22894   16.41858   19.44961
       O     6.02665   16.64920   18.52544
      H1     5.36250   15.94269   18.37963
       H    10.88192   17.89932    7.81431
       O    11.24799   17.32830    7.08171
      H1    10.47757   16.97807    6.62522
       H     7.68705   16.54322   15.92091
       O     7.86500   17.34306   16.44731
      H1     7.40078   17.16731   17.29301
       H     7.69556   10.65552    7.70893
       O     6.85352   11.05070    7.74385
      H1     6.90320   11.73722    8.41118
       H     6.62923   15.39977    9.53109
       O     5.97947   15.22870   10.23304
      H1     5.21152   15.52888    9.84542
       H     5.43725   14.54743    5.87511
       O     5.37226   15.51404    5.93389
      H1     4.38649   15.74117    6.08063
       H     3.56407    8.65747   11.80676
       O     4.11603    9.41078   11.98872
      H1     4.99372    9.06551   12.35337
       H    10.22577   16.29825   18.24190
       O    10.23304   17.24725   18.12367
      H1     9.46052   17.58923   17.59143
       H    10.58167   14.87642   10.64269
       O    11.06512   14.10658   10.95906
      H1    10.44312   13.60069   11.46806
       H     7.51175    9.92957   14.40177
       O     6.69771    9.66250   13.95143
      H1     6.67943   10.30264   13.20224
       H    12.59882   13.21853   11.61863
       O    13.46420   12.84086   11.88865
      H1    13.41564   12.59545   12.82987
       H     3.70944   10.97134   13.10942
       O     3.11889   11.39245   13.78025
      H1     3.68397   12.08667   14.21479
       H     2.81830   17.26111   13.91277
       O     2.65216   16.32160   14.12810
      H1     2.15117   15.91356   13.35303
       H     1.94031   11.41197   10.08726
       O     2.88426   11.38915   10.24072
      H1     3.02346   10.41849   10.38186
       H     9.98270   15.95973   15.53905
       O    10.75869   15.46650   15.70444
      H1    11.46870   16.11724   15.43859
       H    10.91720   19.82961   15.20100
       O    10.86776   19.04337   14.61514
      H1    11.76816   18.84452   14.40108

