141
frame 2 | Written by MDAnalysis XYZWriter (release 2.4.3)
       H    -4.70537   -3.46814  -11.29291
       O    -4.41066   -4.12349  -10.65413
      H1    -3.64690   -3.76883  -10.15686
       H   -10.04231   -0.60578   -9.64651
       O   -10.61233    0.11224   -9.98083
      H1   -11.12333   -0.29939  -10.72089
       H   -17.15489   -2.04756  -12.27287
       O   -16.64163   -1.25521  -12.64868
      H1   -16.37038   -1.56087  -13.53040
       H    -9.16062   -4.38907  -15.94462
       O    -9.87437   -4.95858  -16.26693
      H1   -10.26015   -4.62156  -17.07049
       H   -15.83529    0.29906  -13.27752
       O   -15.34036    1.13346  -13.12224
      H1   -14.96689    1.46878  -13.97197
       H    -8.74996   -1.42213   -8.47935
       O    -8.99044   -1.95557   -9.29609
      H1    -8.16803   -1.79990   -9.79473
       H    -8.19869   -0.90029  -16.55574
       O    -8.90836   -1.52716  -16.82667
      H1    -9.75003   -1.12403  -16.65515
       H   -13.34415    1.79197  -14.78370
       O   -14.03871    2.32619  -15.22273
      H1   -14.34502    3.16854  -14.83577
       H   -15.15243   -1.22294  -11.19703
       O   -14.35462   -1.55527  -10.72489
      H1   -14.33256   -2.45095  -11.17438
       H   -12.15873   -6.21373  -10.49207
       O   -12.68516   -5.46357  -10.17176
      H1   -12.05503   -4.73963   -9.95982
       H   -16.43634   -0.98790   -7.99129
       O   -15.77562   -1.70605   -8.13940
      H1   -15.48593   -1.72959   -9.06032
       H    -6.18767   -3.56074   -9.21936
       O    -6.44896   -3.48761   -8.27439
      H1    -7.43315   -3.58760   -8.33026
       H   -13.53578   -0.64870   -8.01723
       O   -12.55579   -0.59988   -7.96468
      H1   -12.29634   -0.29795   -8.84864
       H   -12.72591   -1.26711  -11.43826
       O   -11.94054   -1.01516  -11.94019
      H1   -12.32468   -0.55140  -12.71586
       H   -12.03567   -5.17164  -14.00501
       O   -11.83919   -4.31410  -14.42931
      H1   -11.14855   -4.50023  -15.11874
       H    -7.88768    0.71139  -11.25060
       O    -8.37700    0.00059  -11.64767
      H1    -9.22876    0.00892  -11.14552
       H    -8.80696   -2.11307  -18.80867
       O    -8.62449   -1.95083  -19.71747
      H1    -8.51604   -2.83268  -20.05193
       H   -11.46003    3.28090  -10.66289
       O   -10.69066    3.39341  -11.23544
      H1   -10.72220    4.32997  -11.61866
       H   -11.57799   -8.18999  -10.63333
       O   -11.03531   -7.56357  -11.13311
      H1   -11.37223   -7.75397  -12.06794
       H    -9.97376    2.88890   -9.62452
       O    -9.34135    3.18329   -8.98135
      H1    -9.69803    2.85935   -8.14465
       H    -6.64755   -2.85332  -11.22407
       O    -6.70098   -2.04086  -10.75597
      H1    -7.08892   -1.38433  -11.33363
       H    -7.54526   -9.24212  -12.50263
       O    -8.32883   -8.68618  -12.38371
      H1    -8.14112   -7.83900  -12.78360
       H    -8.06691   -7.44376  -10.75766
       O    -7.31226   -6.87927  -10.48706
      H1    -6.49139   -7.32943  -10.73656
       H   -10.32128   -2.36285  -12.57883
       O    -9.90946   -3.14297  -12.98375
      H1   -10.63233   -3.59225  -13.45249
       H   -13.39340   -2.89248  -17.75957
       O   -13.23352   -2.70536  -18.75001
      H1   -13.82133   -3.13284  -19.39123
       H    -8.17930   -2.72906  -15.37940
       O    -7.87787   -3.49311  -14.85609
      H1    -8.40486   -3.36454  -14.04029
       H   -13.18734   -6.08653   -8.57808
       O   -13.66783   -6.31903   -7.77950
      H1   -13.28450   -5.71568   -7.07786
       H    -9.91698    4.57188  -14.57074
       O    -9.81903    3.95621  -15.30937
      H1    -9.73109    3.05537  -14.84855
       H    -7.26789   -6.19800  -17.52821
       O    -7.67834   -6.50900  -16.67063
      H1    -8.43962   -5.88089  -16.59244
       H   -13.96332   -4.52604  -16.39753
       O   -13.79457   -5.38556  -15.96753
      H1   -13.16130   -5.23740  -15.24591
       H    -5.97126    0.26379  -16.73655
       O    -6.65475    0.20729  -16.07570
      H1    -6.76062    1.09189  -15.70184
       H    -4.20454   -1.49205  -12.77399
       O    -3.40956   -1.34992  -12.23851
      H1    -3.75976   -0.87147  -11.53180
       H    -7.65620   -0.29411   -6.87324
       O    -8.37130   -0.91560   -6.74865
      H1    -8.04197   -1.43657   -6.01552
       H   -12.90169   -7.54919  -14.15831
       O   -12.14759   -7.15992  -13.75278
      H1   -11.51675   -7.68434  -14.21212
       H    -9.31642    1.09727  -13.02396
       O    -9.84604    1.83595  -13.37526
      H1    -9.97600    2.45174  -12.65718
       H   -10.70741   -2.84144   -9.02679
       O   -11.68303   -3.07717   -9.03609
      H1   -12.06625   -2.26862   -8.61493
       H   -14.27734   -1.99872  -15.66518
       O   -13.37395   -2.26474  -15.90908
      H1   -12.89502   -2.37419  -15.10308
       H    -9.23705   -5.01797   -6.62150
       O    -9.14755   -4.15303   -7.10313
      H1    -9.04913   -3.47108   -6.39549
       H   -11.46654   -0.59145  -17.50917
       O   -11.31014   -0.62033  -16.54422
      H1   -12.00051   -1.20662  -16.12388
       H    -8.43747   -4.03428  -11.87422
       O    -7.55894   -4.43116  -11.81552
      H1    -7.68530   -5.05341  -11.05333
       H   -11.71583    0.16956  -15.12394
       O   -12.06494    0.55565  -14.28686
      H1   -11.36223    1.18493  -13.95554
       H    -5.48390   -0.04487   -8.52176
       O    -5.00454   -0.76493   -8.94386
      H1    -5.57637   -1.33450   -9.43950
       H    -6.18709   -2.77404  -14.29615
       O    -5.47800   -2.56537  -13.63658
      H1    -5.03140   -3.39400  -13.78321
       H    -7.17775   -5.70042  -13.02980
       O    -7.18486   -6.46069  -13.67814
      H1    -7.54193   -6.16422  -14.51638
       H    -7.72953    2.59397  -10.06462
       O    -6.98031    2.05231  -10.39543
      H1    -6.88577    2.44256  -11.31182
       H   -12.49965   -3.80162   -6.75669
       O   -12.04106   -4.50957   -6.25951
      H1   -11.12173   -4.54181   -6.67607
       H   -14.64178   -4.58317  -12.93981
       O   -14.67270   -4.32078  -12.01910
      H1   -13.91921   -4.74918  -11.57241

