141
frame 6 | Written by MDAnalysis XYZWriter (release 2.4.3)
       H   -16.03205   -6.31646   10.17690
       O   -16.66696   -6.76751    9.59317
      H1   -17.35489   -6.11072    9.44010
       H   -18.32203    0.78558   10.42980
       O   -19.28802    0.70623   10.62513
      H1   -19.38733    1.26065   11.41175
       H   -12.93712    2.92624   13.50413
       O   -12.45003    2.14026   13.17837
      H1   -12.14311    1.70028   13.97730
       H   -16.84513   -4.59564   13.66540
       O   -16.01418   -4.06392   13.61411
      H1   -15.88141   -3.60982   14.44235
       H   -16.71895    2.89265    7.48630
       O   -17.26782    2.20253    7.88932
      H1   -17.97265    2.69522    8.37579
       H   -13.83418   -2.20495   14.79690
       O   -13.17252   -1.52800   14.44634
      H1   -12.43012   -2.01330   14.08748
       H   -13.97148    3.09559   10.30434
       O   -13.59045    3.33006    9.41115
      H1   -13.11061    2.56824    9.09444
       H   -13.66434    4.03738   15.32323
       O   -13.43492    4.36248   14.41766
      H1   -12.65532    4.96767   14.46411
       H   -19.17230    5.58448   15.61100
       O   -18.93509    4.61468   15.53648
      H1   -18.38315    4.54079   14.73496
       H   -16.14321   -2.41902   12.58836
       O   -16.40644   -1.78773   11.89528
      H1   -17.32923   -1.93989   11.68223
       H   -17.28364    2.36617   13.94978
       O   -17.18438    3.19542   13.49478
      H1   -16.59804    3.10860   12.74937
       H   -19.83309    1.91989   13.70811
       O   -19.59080    2.26110   12.80995
      H1   -18.74319    2.75121   12.92246
       H   -18.13157   -7.80643   10.44114
       O   -18.64684   -8.02478   11.20894
      H1   -19.57884   -7.86764   11.05872
       H   -13.56443   -4.98397   10.55962
       O   -14.47590   -4.88278   10.17644
      H1   -14.40131   -4.81400    9.21157
       H   -17.50570   -6.47896   14.42303
       O   -17.95279   -6.27177   13.55197
      H1   -17.74283   -7.01723   12.93870
       H   -14.90948    2.37006   12.27171
       O   -15.36019    2.78536   11.57791
      H1   -15.54389    1.90242   11.04382
       H   -16.57805    1.28563    9.18382
       O   -16.34911    0.70827    9.97461
      H1   -16.50061   -0.23112    9.60946
       H   -18.85012   -2.86287   15.31909
       O   -18.79442   -3.85884   15.45614
      H1   -18.91894   -3.93631   16.41353
       H   -12.77792    0.87265   11.60817
       O   -12.61554    0.37096   10.74871
      H1   -13.17354   -0.37785   10.83660
       H   -19.93861   -5.60783   18.25425
       O   -19.20210   -5.06235   18.02330
      H1   -18.62660   -5.08818   18.80358
       H   -15.29337   -0.34316   12.55921
       O   -14.66749    0.23350   12.94815
      H1   -14.12089   -0.35236   13.51614
       H   -14.45111    1.90170   18.55795
       O   -14.32970    1.02943   18.17469
      H1   -14.58582    0.41881   18.90049
       H   -13.27985   -8.46514   12.38367
       O   -13.82073   -7.90883   12.89996
      H1   -13.21181   -7.17625   13.09680
       H   -15.14134    6.90403   12.62594
       O   -15.43652    6.37759   13.40216
      H1   -14.75417    5.73310   13.58267
       H   -17.97665   -1.87403    8.72713
       O   -17.17172   -2.00084    9.24452
      H1   -16.54364   -2.37379    8.59373
       H   -13.26418   -0.51001    8.68799
       O   -12.54731   -0.48147    7.99107
      H1   -12.24386   -1.38830    7.86388
       H   -17.94158    0.23252   18.67605
       O   -18.13204   -0.12660   19.52178
      H1   -18.58540   -0.98015   19.34784
       H   -14.26989   -3.02892   10.43064
       O   -14.22204   -2.05294   10.21843
      H1   -15.01587   -1.70057   10.66244
       H   -19.09163   -2.02691    7.02559
       O   -18.93103   -1.11397    7.37554
      H1   -18.09032   -0.82230    7.02294
       H   -13.56310   -6.64812   16.55138
       O   -14.08932   -5.84275   16.42027
      H1   -15.03470   -6.14475   16.28331
       H   -16.51491   -7.58058   16.50353
       O   -16.69138   -6.73835   16.09556
      H1   -17.29411   -6.23334   16.62788
       H   -12.30152   -3.79797   13.49484
       O   -11.44493   -3.32536   13.43153
      H1   -11.40391   -3.10075   12.49665
       H   -13.05983   -0.86591   17.85816
       O   -12.46627   -1.60876   18.19972
      H1   -12.03035   -1.90994   17.38348
       H   -16.99722   -1.32039    5.08127
       O   -16.80978   -1.98414    5.78062
      H1   -17.20165   -2.81814    5.44954
       H   -15.09258   -2.96521   16.89397
       O   -15.42869   -2.45730   16.16389
      H1   -16.31168   -2.11436   16.46811
       H   -19.32012   -4.59179    9.85364
       O   -18.66470   -4.59946    9.10212
      H1   -18.20401   -3.73179    9.21354
       H   -10.97187   -5.71179   11.30522
       O   -11.93025   -5.59877   11.19312
      H1   -12.18184   -5.27665   12.04753
       H   -19.24236   -0.88668   11.37875
       O   -19.14551   -1.60264   12.01961
      H1   -18.84468   -1.29232   12.92159
       H   -16.10932    4.48942   16.36790
       O   -15.95786    3.62188   16.01664
      H1   -16.55223    3.58665   15.27063
       H   -17.65689   -0.54063   14.49535
       O   -18.47765   -1.11627   14.61864
      H1   -19.08841   -0.57536   15.10786
       H   -17.22543    1.92186   17.22380
       O   -16.79325    1.11440   17.13885
      H1   -15.95575    1.14956   17.55222
       H   -16.63935    0.89514   15.60712
       O   -16.62058    0.85251   14.65736
      H1   -15.74833    0.69606   14.24511
       H   -14.21381   -4.44902   17.87480
       O   -14.60297   -3.80096   18.42793
      H1   -13.85218   -3.26064   18.70371
       H   -15.57227   -2.73892    6.82378
       O   -15.23306   -3.16765    7.63988
      H1   -14.61226   -2.61491    8.09148
       H   -13.82324   -5.47844   14.78120
       O   -13.56820   -5.18828   13.85951
      H1   -14.41757   -4.98413   13.40297
       H   -18.78482    5.21370   18.92731
       O   -18.68945    4.31010   18.50218
      H1   -18.66569    4.49260   17.55647
       H   -11.67764    1.17046   16.15572
       O   -11.60372    0.65859   15.36157
      H1   -12.22095   -0.09120   15.49505

