141
frame 10 | Written by MDAnalysis XYZWriter (release 2.4.3)
       H   -16.47739   -5.99564    9.23214
       O   -17.12623   -6.58935    8.80014
      H1   -17.95556   -6.15718    8.74347
       H   -13.77356  -11.85183    8.50996
       O   -14.00138  -12.13816    7.61833
      H1   -14.46595  -11.36293    7.30582
       H   -14.76146  -12.55040   -0.30355
       O   -14.78673  -13.04252   -1.14482
      H1   -15.69692  -12.84823   -1.49288
       H   -16.19713   -7.03999   -2.81415
       O   -15.95654   -6.61641   -1.97602
      H1   -14.97323   -6.54745   -1.92219
       H   -17.21224  -12.00443    0.34633
       O   -17.29981  -11.11802   -0.02879
      H1   -16.90139  -10.55483    0.65015
       H   -18.24405  -14.84739   -3.74664
       O   -19.09386  -14.39437   -3.50002
      H1   -19.63270  -15.00576   -2.98719
       H   -17.59893  -10.22906    8.77498
       O   -17.33587   -9.51525    8.11810
      H1   -17.16981   -8.58320    8.49038
       H   -17.08752  -15.39057    3.92968
       O   -17.41546  -14.59012    3.50944
      H1   -16.74409  -13.89690    3.66899
       H   -18.94341   -6.85943   -0.26440
       O   -19.57130   -6.39193   -0.81383
      H1   -19.93509   -5.60140   -0.31578
       H   -18.07572  -10.16760   -1.19225
       O   -18.74947   -9.91481   -1.80118
      H1   -19.61966  -10.33852   -1.52927
       H   -15.28349  -13.13017    8.02604
       O   -15.91388  -13.76214    8.39966
      H1   -15.42070  -14.24878    9.12296
       H   -15.45963   -4.09098    2.82732
       O   -16.22199   -4.32705    2.29225
      H1   -15.85424   -4.95192    1.67031
       H   -12.78258   -9.95961    1.95745
       O   -12.56784   -9.12399    1.43249
      H1   -12.28721   -9.50430    0.60317
       H   -13.24301  -12.79287    1.78331
       O   -14.04195  -12.96806    1.29579
      H1   -13.98184  -13.88009    1.14627
       H   -17.36986  -11.14692    3.77639
       O   -18.29775  -11.25589    3.44124
      H1   -18.78564  -11.56442    4.20529
       H   -12.11909  -10.64300    3.68592
       O   -12.95684  -10.94763    3.22811
      H1   -13.47952  -11.54581    3.80299
       H   -13.94730   -9.51730   -3.43593
       O   -13.01678   -9.67631   -3.69662
      H1   -12.68962   -9.13062   -4.40619
       H   -13.58845   -4.39729    4.43749
       O   -14.37177   -3.84728    4.28547
      H1   -15.06810   -3.99915    4.99026
       H   -18.08472  -14.10153    1.47003
       O   -18.00834  -13.77068    0.55318
      H1   -18.87398  -13.95661    0.17733
       H   -15.94241   -9.23911   -3.17712
       O   -15.63292  -10.06551   -2.66906
      H1   -15.92581  -10.82559   -3.17181
       H   -18.79081   -9.89073    2.20518
       O   -19.19625   -9.00345    1.92108
      H1   -20.04841   -9.35588    1.56324
       H   -15.17941   -7.38461    6.65912
       O   -14.35005   -7.69528    7.12076
      H1   -14.48252   -7.49938    8.05763
       H   -17.94245  -13.11385   -2.80023
       O   -17.18748  -12.58396   -2.54415
      H1   -17.53554  -11.85799   -1.98407
       H   -15.66549   -9.25746    2.40812
       O   -15.54323  -10.17108    2.00035
      H1   -14.57671  -10.19216    1.76280
       H   -16.93779  -15.86055    0.28480
       O   -17.20026  -16.65359   -0.17760
      H1   -16.61950  -17.35238    0.15757
       H   -18.60542   -5.33390    4.53612
       O   -18.24889   -4.54549    4.16245
      H1   -17.67557   -4.70576    3.40139
       H   -18.68089   -2.37197   -0.82949
       O   -19.32841   -2.72459   -0.23845
      H1   -19.50485   -2.07683    0.47766
       H   -17.88354   -1.28050    4.98896
       O   -18.67634   -1.78765    4.76359
      H1   -18.36551   -2.62319    4.36894
       H   -15.13477  -13.20102   -4.37940
       O   -14.60611  -13.79773   -3.82778
      H1   -14.66536  -13.55312   -2.90255
       H   -15.60882  -11.43304    3.24762
       O   -15.51350  -11.99347    4.04979
      H1   -15.57831  -11.42854    4.84214
       H   -17.36974  -12.73489    8.84519
       O   -18.00676  -12.10726    9.16119
      H1   -17.79177  -11.97920   10.11734
       H   -18.83908   -8.79399    7.80798
       O   -19.73298   -8.29632    7.76043
      H1   -19.54530   -7.60676    7.04051
       H   -19.13355   -9.32025   -3.50621
       O   -19.52150   -8.86168   -4.30159
      H1   -20.05859   -8.10464   -3.88797
       H   -14.74883  -16.01740    6.82969
       O   -15.51991  -15.75651    6.33028
      H1   -15.78322  -14.92865    6.74147
       H   -14.73643   -7.23045    2.31250
       O   -15.62926   -7.44495    2.64086
      H1   -16.19961   -7.26271    1.81665
       H   -13.07167   -7.42795   -2.03912
       O   -13.31345   -6.54602   -1.76567
      H1   -12.88003   -5.93798   -2.43467
       H   -17.39450   -8.38540   -4.56203
       O   -16.56625   -7.97747   -4.33647
      H1   -16.41328   -7.29551   -4.94297
       H   -17.80728   -8.44811    0.63344
       O   -17.23900   -7.70278    0.45872
      H1   -17.17363   -7.57055   -0.56199
       H   -16.02942  -10.17992    6.98927
       O   -15.38182  -10.40040    6.29255
      H1   -14.85844   -9.60855    6.03047
       H   -19.18806  -16.92878    0.20753
       O   -19.76913  -17.62287    0.51317
      H1   -20.36488  -17.82251   -0.23988
       H   -14.32018  -13.79127    3.70905
       O   -13.98839  -14.52224    4.20194
      H1   -14.73553  -14.64536    4.81792
       H   -16.49223   -5.95342    5.77671
       O   -16.57432   -6.85184    5.57079
      H1   -16.36847   -7.02588    4.63993
       H   -16.77740   -3.16894    6.66268
       O   -16.44398   -3.88706    6.09330
      H1   -17.09447   -4.16167    5.47256
       H   -18.27573   -6.73553    5.88225
       O   -19.22716   -6.50595    5.88119
      H1   -19.67042   -7.18276    5.31033
       H   -14.02476  -14.53277   -0.59222
       O   -13.55320  -15.31453   -0.44470
      H1   -13.42879  -15.46527    0.48307
       H   -13.48590   -6.34336    0.28804
       O   -13.48809   -6.60754    1.19710
      H1   -13.18352   -7.56158    1.19589
       H   -15.59155   -4.05410   -0.10656
       O   -14.73025   -3.72737   -0.31478
      H1   -14.47015   -3.13016    0.43740

