141
frame 9 | Written by MDAnalysis XYZWriter (release 2.4.3)
       H    14.94949  -13.65585    3.54799
       O    14.30001  -13.20787    2.96209
      H1    13.52222  -13.82373    2.83814
       H    18.49599  -13.79258   -0.30652
       O    19.13329  -13.03375   -0.31778
      H1    19.06429  -12.62299    0.58168
       H    14.91848   -7.42172    4.38112
       O    14.38142   -6.63034    4.19283
      H1    14.64885   -6.52194    3.22564
       H    13.49582  -10.00461    0.17307
       O    13.06658   -9.73669   -0.64734
      H1    12.36392  -10.35326   -0.83545
       H    17.71157   -9.21761   -0.03417
       O    17.35597   -8.48540    0.51884
      H1    16.56406   -8.86504    0.90968
       H    19.25919   -4.53640    0.30657
       O    18.55568   -5.20108    0.56222
      H1    18.57420   -5.22083    1.50222
       H    15.78577  -12.74371    2.09337
       O    16.60780  -12.63513    1.62501
      H1    16.57366  -13.17820    0.81407
       H    14.46071   -7.02216   10.05888
       O    14.29896   -7.65934    9.34503
      H1    14.77492   -7.27793    8.57732
       H    18.17352  -12.43176    3.59293
       O    17.90796  -11.94439    4.43187
      H1    17.49079  -11.11930    4.13344
       H    18.82152  -12.23923    8.30186
       O    18.15151  -12.88869    8.44695
      H1    18.54042  -13.79792    8.26103
       H    15.36802  -14.12126    5.18460
       O    16.16942  -14.09175    4.58186
      H1    16.62923  -13.27409    4.89103
       H    11.33419   -9.13212    6.03112
       O    11.86394   -9.92693    6.14429
      H1    12.47462   -9.65152    6.82532
       H    17.50593  -11.70774   11.24422
       O    16.65313  -11.82613   10.75852
      H1    16.96811  -12.20971    9.89528
       H    15.85354  -10.78903    1.36561
       O    15.31753   -9.91573    1.28751
      H1    14.92255   -9.70706    2.15199
       H    15.57719  -13.63287    8.88743
       O    14.96826  -13.03515    8.46648
      H1    14.18603  -13.06283    9.01060
       H    18.67614   -4.51304    6.72225
       O    17.91752   -3.90530    6.53367
      H1    17.50240   -3.91176    7.38809
       H    12.26687  -12.17691    3.67778
       O    11.47041  -11.62606    3.84415
      H1    11.51560  -11.49026    4.82124
       H    17.27624   -8.18801    4.22301
       O    16.81330   -9.05544    4.39753
      H1    16.67075   -8.94228    5.35632
       H    12.19589   -5.88842   -0.40874
       O    12.58611   -5.04576   -0.14876
      H1    13.40993   -5.19216    0.28629
       H    14.09588  -12.45227   -1.07784
       O    13.45903  -13.09651   -0.74504
      H1    13.59387  -13.92385   -1.27196
       H    12.38422   -4.54809    3.52016
       O    12.66832   -3.80654    4.10261
      H1    13.60333   -3.98744    4.15328
       H    13.85911   -9.85468    8.80530
       O    13.59033  -10.43918    8.09714
      H1    14.14268  -11.24329    8.21105
       H    10.11881   -7.78175    2.86881
       O     9.28776   -7.39851    2.51861
      H1     9.19004   -7.65611    1.56042
       H    14.09106   -8.65232   -1.79206
       O    14.64239   -8.38484   -2.54355
      H1    15.27650   -7.75178   -2.30562
       H    15.26064   -3.02783    5.03136
       O    15.42355   -3.96245    5.04486
      H1    16.32405   -4.05426    5.41432
       H    12.18611   -8.07490   -0.95260
       O    11.53133   -7.35473   -1.10892
      H1    11.53485   -7.15618   -2.03526
       H    15.52914   -4.41184    8.22431
       O    16.19530   -4.09828    8.83300
      H1    16.41939   -4.86943    9.34063
       H    16.81726   -3.36493    1.23733
       O    16.11063   -3.06626    0.68083
      H1    16.48144   -3.10947   -0.19555
       H    17.82064   -1.04120    5.08352
       O    17.23116   -0.75074    4.40152
      H1    17.03649    0.17743    4.44973
       H    18.22728   -3.75618    3.45775
       O    17.42144   -4.29484    3.20696
      H1    16.56115   -3.99941    3.61117
       H    13.56152   -4.74800    7.53448
       O    14.29741   -5.22685    7.17086
      H1    14.64267   -4.76326    6.40759
       H    11.59000   -4.90504    1.43015
       O    11.04450   -4.84713    2.20791
      H1    10.56906   -5.69276    2.35072
       H    14.18223  -13.69382    7.01541
       O    14.08625  -14.38153    6.36877
      H1    14.82510  -14.96800    6.58001
       H    11.42197   -7.15547    5.73196
       O    11.61355   -7.37107    4.81369
      H1    12.50582   -7.14492    4.56964
       H    15.43708   -5.87682    0.27695
       O    15.12578   -5.61984    1.16730
      H1    15.64452   -4.83679    1.35734
       H    18.67753   -2.40748    6.47030
       O    18.91483   -1.45805    6.47580
      H1    19.87661   -1.46956    6.24890
       H    18.41563   -7.24072    2.81832
       O    18.24927   -6.83230    3.67676
      H1    17.84093   -6.00943    3.51007
       H    15.74310   -1.02210    4.88759
       O    14.78489   -1.25033    4.95846
      H1    14.31213   -0.98341    4.17806
       H    10.52428   -9.98120    1.74011
       O    11.34202   -9.49731    1.88379
      H1    11.58221   -9.90078    2.75079
       H    10.79052   -5.30140    6.70701
       O    10.53745   -6.17512    7.04782
      H1    10.63441   -6.04526    8.02514
       H    18.09974   -5.97023   11.82474
       O    17.53410   -5.47699   11.18534
      H1    16.63557   -5.67113   11.43144
       H    16.41575  -10.36892    7.34023
       O    16.70154   -9.49531    7.11476
      H1    17.53517   -9.27754    7.50688
       H    17.37354   -5.94561   -1.20596
       O    16.55991   -6.39271   -1.00540
      H1    16.83901   -7.19694   -0.43911
       H    16.67911   -9.96482   10.55353
       O    16.65955   -9.01640   10.59980
      H1    15.90703   -8.75004   10.03982
       H    17.74557  -10.38987   -2.01282
       O    18.33262  -10.52152   -1.26454
      H1    18.57956  -11.46925   -1.16587
       H    19.09891   -8.29988    8.57295
       O    18.94572   -7.86130    9.40054
      H1    18.12399   -8.22434    9.75768
       H     9.94072  -12.13709    7.20108
       O    10.43820  -11.50894    7.76381
      H1    10.87011  -10.91429    7.13477

