141
frame 3 | Written by MDAnalysis XYZWriter (release 2.4.3)
       H    -5.67756   -8.19898    7.33727
       O    -6.03515   -7.94303    6.46035
      H1    -6.92329   -8.40474    6.47351
       H    -6.00234   -7.57290    3.36323
       O    -6.83300   -7.32277    2.89055
      H1    -6.89486   -7.96790    2.15376
       H    -8.23887   -4.73764    6.53130
       O    -8.20776   -3.90433    6.00513
      H1    -7.84779   -4.15154    5.11398
       H   -10.05739   -1.94896    2.27228
       O    -9.38203   -2.35389    2.75092
      H1    -9.11825   -1.81938    3.52075
       H    -6.92319    3.59512    6.81815
       O    -6.83208    3.66285    5.86867
      H1    -6.45452    2.79432    5.49522
       H    -1.58361   -5.15605    1.47143
       O    -1.82558   -5.14350    0.56796
      H1    -1.32304   -4.44262    0.28037
       H    -8.52166   -8.07780    3.59043
       O    -9.14057   -8.30749    4.28301
      H1    -9.65031   -9.08530    4.05547
       H    -0.44983   -3.20174    3.94782
       O    -0.44819   -2.28885    4.42953
      H1    -0.07022   -2.49282    5.29572
       H   -10.80873   -4.81041    3.26149
       O   -10.76468   -4.29717    4.07041
      H1   -10.19237   -3.58112    3.78157
       H    -3.21781    1.53048    3.60821
       O    -3.45914    2.28919    3.02987
      H1    -4.19634    2.07847    2.44507
       H   -11.81046   -0.81100    4.21954
       O   -11.49549   -0.03182    3.69192
      H1   -10.56219   -0.05224    3.94772
       H   -12.40037   -2.96030    4.38753
       O   -12.60584   -2.20292    4.92105
      H1   -13.49533   -2.11790    5.04387
       H    -5.23558   -6.17921    5.69805
       O    -4.76317   -5.34190    5.62642
      H1    -5.24037   -4.86143    4.93128
       H    -9.80864   -3.17024    6.43543
       O   -10.58411   -2.70605    6.79277
      H1   -11.24038   -2.51005    6.13185
       H    -8.98718   -5.75184   -0.07602
       O    -8.79777   -4.94849    0.39621
      H1    -7.86603   -4.94802    0.54288
       H    -5.56687    2.15139    0.45856
       O    -5.47911    1.27679    0.89288
      H1    -5.35341    0.44999    0.26975
       H    -6.16960   -0.44423    4.86617
       O    -5.63306   -1.20157    5.07926
      H1    -6.09915   -1.52493    5.83817
       H    -7.74261    2.33815    2.94029
       O    -7.69568    1.42986    2.60451
      H1    -6.89503    1.30761    2.12382
       H    -4.82601   -1.73026   -0.74630
       O    -4.91741   -1.30747    0.09678
      H1    -5.85065   -1.51208    0.44701
       H    -7.23300   -0.15019   -2.00812
       O    -7.14418    0.74100   -1.70427
      H1    -7.82433    0.85321   -1.01128
       H    -8.09295   -8.20226   -0.81412
       O    -7.46923   -7.82582   -0.16082
      H1    -6.62766   -7.96353   -0.56822
       H   -10.77262   -5.70842    5.33042
       O   -10.47897   -6.51793    5.89156
      H1    -9.86700   -6.99288    5.33108
       H    -6.69144   -2.69391    9.64203
       O    -6.68358   -3.45391   10.22512
      H1    -6.04466   -3.19107   10.86358
       H    -8.48345   -0.07790    5.57745
       O    -8.63920   -0.24270    4.62035
      H1    -8.30422    0.56043    4.12766
       H   -11.99620   -2.98613    1.18961
       O   -11.88120   -2.03237    1.14664
      H1   -12.66490   -1.66369    1.57777
       H   -11.30624   -6.04121    1.39931
       O   -11.07953   -5.13896    1.61203
      H1   -10.16076   -5.06687    1.20361
       H    -4.79740    1.81949    5.68992
       O    -5.33663    1.74406    4.87858
      H1    -4.69931    2.12585    4.27298
       H    -1.10075   -4.44751    9.24765
       O    -1.88048   -4.95400    8.96040
      H1    -2.64330   -4.35713    9.10207
       H    -8.22544   -1.99955    0.08814
       O    -7.70086   -1.59695    0.80111
      H1    -8.18170   -1.85931    1.61759
       H    -3.85485   -0.86018    4.53040
       O    -2.90463   -0.70143    4.35668
      H1    -2.44806   -1.47035    4.64250
       H    -6.46963   -4.28727    3.12478
       O    -6.46337   -3.92006    4.03440
      H1    -6.18210   -2.99929    3.99789
       H    -2.49169   -4.64038    5.62234
       O    -1.61462   -4.91130    6.06974
      H1    -1.85371   -4.74109    7.02458
       H    -2.02791   -6.58296    5.23760
       O    -2.08500   -7.17183    4.45801
      H1    -3.02106   -7.39639    4.37212
       H    -3.54821   -5.18650   -0.32358
       O    -4.45550   -5.55902   -0.52736
      H1    -4.51035   -5.38239   -1.47180
       H    -9.18708    0.41204    7.81431
       O    -8.68193   -0.38054    7.52741
      H1    -9.28418   -1.09382    7.36274
       H    -2.18632   -1.73342    0.76263
       O    -1.69703   -1.36054    0.00935
      H1    -1.68529   -1.94971   -0.71962
       H    -5.19950   -3.75705    8.55747
       O    -4.35460   -3.90760    8.08755
      H1    -4.55148   -4.50685    7.31664
       H    -9.78010   -2.27256   -0.89419
       O    -9.05164   -2.79503   -1.17937
      H1    -9.06992   -3.51237   -0.59350
       H    -4.55036   -9.21573    3.57063
       O    -4.51722   -8.41967    4.11300
      H1    -5.04353   -8.60652    4.87765
       H    -3.09991   -1.73513    2.76572
       O    -3.14202   -2.46644    2.08675
      H1    -3.94466   -2.21622    1.55609
       H    -7.27880   -0.73781    8.40756
       O    -6.51171   -0.98280    8.96832
      H1    -6.59742   -0.37027    9.77553
       H    -8.31688   -6.42041    8.30821
       O    -9.01457   -5.78594    8.09196
      H1    -9.51585   -6.15745    7.34331
       H    -1.95748   -4.12024    2.71504
       O    -1.23385   -4.67780    3.05063
      H1    -1.62698   -5.55155    3.42030
       H    -5.31244    0.49865    8.02195
       O    -4.90992    1.35065    7.77622
      H1    -4.27566    1.46685    8.48178
       H    -9.14240    0.37002    0.74286
       O    -9.50532    0.95150    0.06698
      H1    -9.17264    1.82711    0.22741
       H   -11.35556   -2.20964    9.95100
       O   -11.80551   -2.70331    9.23166
      H1   -11.21211   -2.97962    8.49576
       H    -6.42176   -5.93369    1.90251
       O    -6.31898   -5.04671    1.46582
      H1    -5.71075   -5.17708    0.77377

