141
frame 9 | Written by MDAnalysis XYZWriter (release 2.4.3)
       H   -16.39740   -5.43884   -2.53853
       O   -16.45997   -4.56254   -3.00153
      H1   -17.20453   -4.63533   -3.72230
       H   -17.61963  -13.81170   -9.21841
       O   -17.15702  -14.13959  -10.01812
      H1   -16.54443  -14.82927   -9.81921
       H   -16.49449   -7.76139   -1.91799
       O   -16.42963   -6.88221   -1.50615
      H1   -15.55259   -6.66111   -1.24863
       H   -16.27340   -5.75625   -7.73919
       O   -16.71570   -6.14092   -7.03384
      H1   -17.25711   -5.53844   -6.48724
       H   -16.05058  -10.47461   -0.79062
       O   -16.52429   -9.88236   -0.17879
      H1   -15.96174  -10.05787    0.62283
       H   -12.63433   -5.46654  -11.68389
       O   -12.13660   -5.50066  -10.82522
      H1   -12.22582   -4.61963  -10.42662
       H   -15.68361   -9.88673  -14.66756
       O   -15.31659   -9.34067  -13.96006
      H1   -15.12751   -9.89367  -13.18152
       H   -14.27630   -3.44650   -4.78205
       O   -15.06322   -3.84680   -5.19567
      H1   -15.44304   -4.19545   -4.38125
       H   -10.70039   -8.24714   -6.19217
       O   -11.16081   -7.62669   -5.60212
      H1   -11.55840   -7.04456   -6.23604
       H   -15.77684   -3.37117   -8.85689
       O   -15.26195   -4.03597   -9.35669
      H1   -15.20818   -3.55754  -10.20595
       H   -10.20487  -12.11601   -9.85729
       O    -9.52666  -11.89957   -9.19009
      H1    -9.24587  -12.75978   -8.91441
       H   -17.82847  -15.55440   -7.26043
       O   -17.13891  -14.98777   -6.79591
      H1   -16.77729  -15.51937   -6.08102
       H   -12.92460   -7.96325   -9.14641
       O   -13.60331   -7.32103   -8.91619
      H1   -13.40977   -6.61499   -9.56382
       H   -18.00836   -9.58094   -1.16546
       O   -18.53245   -9.60311   -1.96919
      H1   -19.43260   -9.70675   -1.71170
       H   -19.01420   -5.35311   -4.85729
       O   -18.23785   -4.80978   -5.05744
      H1   -18.54690   -3.93984   -5.30446
       H   -13.62453   -6.36534   -7.32753
       O   -13.44744   -6.13915   -6.39648
      H1   -14.08259   -5.39848   -6.27686
       H   -14.33140  -11.41074  -12.40837
       O   -14.90087  -11.21688  -11.71301
      H1   -15.42112  -12.06091  -11.57409
       H   -13.96898   -9.08871   -3.11640
       O   -13.34684   -8.32394   -3.11185
      H1   -13.07522   -8.17315   -4.06952
       H    -9.57998   -5.68467   -8.55084
       O    -9.95280   -6.04565   -7.75407
      H1    -9.91774   -7.04492   -7.87525
       H   -10.27091  -10.62073   -6.49900
       O    -9.92375  -11.06057   -5.74627
      H1   -10.73864  -11.17164   -5.17618
       H   -10.65948   -8.95152   -8.69081
       O   -10.20517   -9.03589   -7.79543
      H1    -9.26926   -9.11519   -7.97299
       H   -15.80801   -9.54889   -4.12655
       O   -15.12695  -10.14156   -3.80672
      H1   -15.60728  -10.93819   -3.67161
       H   -12.27754   -4.37366   -4.27315
       O   -12.92719   -4.44638   -3.52569
      H1   -12.37210   -4.31256   -2.73663
       H   -18.43736   -7.90738   -9.64105
       O   -18.58690   -7.77481   -8.67520
      H1   -18.05673   -7.04889   -8.31981
       H    -8.62383  -10.32432   -4.82307
       O    -8.06083   -9.89785   -4.14722
      H1    -8.04555  -10.45311   -3.37958
       H   -18.74303  -12.07342   -8.09623
       O   -18.80409  -13.00229   -8.23346
      H1   -19.66789  -13.30938   -7.84831
       H   -17.91725  -12.40653   -3.22190
       O   -17.38755  -11.58933   -3.29440
      H1   -17.74603  -10.94520   -2.62905
       H   -12.42305  -10.11773   -4.04365
       O   -12.39090  -11.03238   -3.96237
      H1   -13.30760  -11.26430   -4.00034
       H    -9.07614   -8.68775   -3.40732
       O    -9.67244   -8.02287   -3.01557
      H1   -10.35224   -7.79111   -3.70216
       H   -14.98853   -8.03345   -9.74999
       O   -15.88103   -8.06871  -10.15738
      H1   -16.16746   -8.97441  -10.39421
       H   -16.18875  -13.34318   -6.03713
       O   -15.81225  -12.60471   -5.60395
      H1   -16.53221  -12.18431   -5.13551
       H   -14.79443  -13.38512   -4.41478
       O   -14.29827  -14.04084   -3.84420
      H1   -14.58238  -13.99803   -2.90347
       H   -19.15376   -9.04681   -3.52368
       O   -19.41163   -8.67748   -4.40903
      H1   -19.80092   -7.75394   -4.28591
       H   -13.44217   -6.75792   -1.91382
       O   -13.89186   -6.41631   -1.10784
      H1   -13.76843   -5.41693   -1.09432
       H   -12.72835  -14.07455   -8.52908
       O   -12.73638  -14.96811   -8.31864
      H1   -11.85768  -15.14545   -8.03700
       H   -17.86074   -9.24374   -7.99654
       O   -17.73070  -10.19672   -7.80860
      H1   -16.77377  -10.31729   -7.90922
       H   -17.69483   -8.41984   -4.89297
       O   -16.71689   -8.32740   -4.96845
      H1   -16.57518   -7.59270   -5.64448
       H   -11.22628   -9.40064  -10.55559
       O   -11.85975   -9.47923   -9.84719
      H1   -12.00880  -10.40016   -9.69454
       H   -13.53688  -12.76786   -9.77191
       O   -13.14935  -12.25630   -9.02994
      H1   -13.83487  -11.73856   -8.66600
       H   -15.64422  -15.28812   -3.96678
       O   -16.47035  -15.75120   -4.13075
      H1   -16.19076  -16.55363   -3.63816
       H   -10.54157   -9.41958   -1.93849
       O   -11.15318  -10.10729   -1.50668
      H1   -11.56859  -10.67037   -2.18770
       H   -12.98046  -13.89670  -11.81905
       O   -13.49316  -14.52679  -11.18844
      H1   -12.86119  -14.93189  -10.56676
       H   -15.09757  -11.22293   -6.70863
       O   -14.66870  -10.63896   -7.32413
      H1   -14.57894   -9.78793   -6.87990
       H   -11.50961  -12.72872   -3.92632
       O   -10.69336  -13.26049   -3.83134
      H1   -10.99620  -14.09727   -3.44374
       H   -13.69178  -14.92383   -5.42173
       O   -13.62787  -15.76608   -5.91288
      H1   -13.24864  -15.53197   -6.82174
       H   -11.67577   -4.97972   -6.43034
       O   -11.60958   -4.16968   -5.87761
      H1   -10.68169   -3.85410   -5.93143
       H   -15.21579   -7.32778  -13.15846
       O   -15.66195   -6.83255  -12.44577
      H1   -15.56126   -7.33703  -11.60188

