141
frame 5 | Written by MDAnalysis XYZWriter (release 2.4.3)
       H    18.75110  -10.79765   13.34579
       O    19.34748  -11.39795   12.89386
      H1    19.83560  -11.91597   13.61997
       H    16.23001   -1.11227   13.43347
       O    16.43777   -1.70678   14.16416
      H1    16.08638   -1.24002   14.92043
       H    16.95305  -10.76368   14.98788
       O    17.14637  -11.49676   15.64704
      H1    16.37020  -11.48915   16.16771
       H    11.98825   -6.16027   10.26801
       O    11.01167   -6.11326   10.20834
      H1    10.68622   -5.30879   10.66910
       H    18.37203   -4.70906   11.33933
       O    18.34042   -3.81708   10.90316
      H1    18.93968   -3.31168   11.46173
       H    12.63297  -13.56928   14.74687
       O    11.95800  -13.43660   15.42049
      H1    11.07348  -13.57770   15.01258
       H    14.19502   -6.44383   11.16848
       O    13.67694   -6.66527   10.37425
      H1    14.23917   -6.26405    9.69952
       H    18.67485  -10.75465    7.26420
       O    18.49162  -11.60375    7.63231
      H1    18.96820  -12.25025    7.02522
       H    12.22045  -11.54342   15.31850
       O    11.99396  -10.60436   15.06006
      H1    11.72287  -10.63842   14.13775
       H    19.12079  -12.42984   11.23311
       O    18.69189  -12.88299   10.49632
      H1    19.28661  -12.66136    9.81104
       H    14.56113  -13.11045   17.35327
       O    14.93941  -12.26220   17.11463
      H1    14.40707  -11.68774   17.73006
       H    14.24600  -13.56030   10.19275
       O    14.40828  -12.81855    9.60483
      H1    13.68387  -12.65486    8.95294
       H    12.72773   -7.55286   14.61459
       O    12.14469   -6.79641   14.83388
      H1    11.28909   -7.11228   14.41258
       H    11.56715  -10.27765   16.92333
       O    10.94536  -10.13167   17.68476
      H1    10.97514  -10.97704   18.17842
       H    12.20386   -8.60145   18.35993
       O    13.05847   -8.25721   18.62619
      H1    13.08060   -7.30032   18.70143
       H    14.52862   -8.50536    9.69801
       O    14.94543   -9.27836    9.29604
      H1    14.22083   -9.73673    8.85728
       H    14.63021   -8.82365   14.78284
       O    13.98562   -8.92333   14.05218
      H1    13.42658   -9.64010   14.37455
       H    12.93947   -5.28235   19.69240
       O    13.55898   -5.57857   19.05149
      H1    13.37441   -4.93107   18.34972
       H    17.55739  -13.95832   19.68356
       O    18.32795  -14.15189   19.10279
      H1    18.67856  -13.39484   18.65291
       H    19.80527  -12.79448   16.37080
       O    19.32467  -12.24450   16.97886
      H1    18.51264  -11.95701   16.55266
       H    18.37813  -13.31373   14.03140
       O    18.65004  -14.10820   13.59294
      H1    17.93548  -14.69950   13.78355
       H    15.76468   -4.48254    8.54422
       O    16.25435   -3.68308    8.70876
      H1    16.84248   -3.84575    9.43983
       H    11.09562  -11.15889   12.32593
       O    11.52383  -10.27771   12.50440
      H1    12.48951  -10.41415   12.33522
       H    16.63275   -4.01681   18.13177
       O    16.53547   -3.33473   18.75156
      H1    17.31402   -3.29370   19.34434
       H    10.93133   -9.14724   11.29900
       O    10.26440   -8.53343   10.94410
      H1    10.78475   -7.70011   10.66527
       H    13.60809   -5.40507    7.81064
       O    14.46367   -5.73736    8.05391
      H1    14.67059   -6.34283    7.33627
       H    15.54914  -13.19683    8.26090
       O    16.29609  -13.35098    7.61324
      H1    16.84922  -12.56846    7.70392
       H    14.70950  -13.97376   13.67172
       O    13.85067  -13.50540   13.32354
      H1    14.12823  -12.70420   12.86403
       H    16.61443   -8.68653   18.94661
       O    16.71049   -9.56510   18.49222
      H1    17.15737  -10.12068   19.15902
       H    16.05395   -8.72483   16.54818
       O    15.34557   -8.20752   16.18254
      H1    14.77209   -8.08523   17.00472
       H    18.90429   -4.17299   14.84688
       O    17.96435   -4.00772   15.01096
      H1    17.82459   -3.11331   14.64248
       H    15.27831   -7.23955   13.03275
       O    15.41110   -6.54849   12.36475
      H1    15.02447   -5.74720   12.75264
       H    14.40784   -9.88990   12.55838
       O    14.06234  -10.45836   11.86331
      H1    14.50475  -10.19622   11.03112
       H    13.52536  -16.07947   11.18757
       O    13.68237  -15.17298   10.97959
      H1    13.71472  -14.74073   11.89218
       H    17.85916  -14.68219   10.19580
       O    17.40579  -15.51474   10.05746
      H1    17.33883  -15.82778   10.99821
       H    19.41646   -8.43328    6.23753
       O    18.90962   -8.00991    6.90751
      H1    19.24415   -7.12001    6.86936
       H    16.44757  -15.83759   15.69628
       O    15.91412  -15.79827   14.91243
      H1    15.20084  -16.43293   14.93044
       H    13.56008   -3.59540   16.25860
       O    13.82839   -4.50296   16.29029
      H1    14.78131   -4.50808   16.45600
       H    17.68186   -8.81409   13.65236
       O    17.13986   -9.59965   13.38477
      H1    17.13593   -9.78326   12.40683
       H    16.25152   -6.53495   16.40680
       O    16.49668   -5.66156   16.65770
      H1    17.15209   -5.39499   15.96628
       H    18.37632   -7.08731   11.06389
       O    18.24146   -6.33873   11.67572
      H1    17.27518   -6.40066   11.79594
       H    15.83756   -8.82168    7.89526
       O    16.14209   -8.43225    7.02551
      H1    17.13016   -8.18743    7.04584
       H    18.55622   -7.08229   13.43132
       O    18.45144   -7.41970   14.34007
      H1    19.00367   -6.78413   14.83064
       H    14.02831   -4.34408   14.47932
       O    14.30339   -4.10468   13.56515
      H1    15.01651   -3.45569   13.69050
       H    17.62337  -11.52869   10.42574
       O    17.31939  -10.57218   10.39403
      H1    16.44220  -10.53220    9.97381
       H    19.28966   -8.37347    8.87109
       O    19.25867   -8.41085    9.82245
      H1    18.66441   -9.12466    9.92320
       H    19.12741   -7.96564   17.33846
       O    19.13471   -7.08494   17.76873
      H1    18.15078   -6.96574   17.97676

