141
frame 4 | Written by MDAnalysis XYZWriter (release 2.4.3)
       H   -10.24407   -1.12161  -11.09867
       O   -10.46435   -0.58923  -11.87234
      H1   -11.11645   -1.10197  -12.34832
       H   -16.92615   -4.98774   -6.58722
       O   -17.12184   -5.24768   -5.68237
      H1   -17.34082   -4.36073   -5.28729
       H    -9.07726   -1.53348   -8.63002
       O    -9.30042   -1.65204   -9.57815
      H1    -8.39844   -1.60135  -10.03964
       H    -6.70022  -10.24509  -10.81041
       O    -6.61860   -9.70696  -11.62568
      H1    -5.73273   -9.39809  -11.57051
       H    -9.68318  -10.11791  -13.07174
       O   -10.07607  -10.95350  -13.20599
      H1    -9.46589  -11.54261  -13.73804
       H   -15.87363   -3.15737  -11.88064
       O   -14.91232   -3.27423  -11.95901
      H1   -14.72363   -4.08465  -11.44227
       H   -11.44100   -5.76118  -10.06838
       O   -11.91398   -5.65119   -9.21824
      H1   -11.74615   -4.74002   -8.91250
       H   -13.63667   -9.10015  -11.28899
       O   -14.44501   -9.19504  -11.78458
      H1   -15.13971   -9.51176  -11.18643
       H    -9.03714   -5.98146   -4.93445
       O    -9.00903   -5.83378   -4.01217
      H1    -9.81930   -5.28529   -3.82362
       H   -15.72010   -1.70978   -8.83640
       O   -15.46951   -2.64720   -8.99975
      H1   -15.08534   -2.60193   -9.88375
       H    -8.36731   -4.48257   -9.58779
       O    -7.73894   -4.92166   -8.98553
      H1    -7.73647   -5.80543   -9.34836
       H   -10.62913  -11.53056   -9.78306
       O   -10.39641  -11.13910   -8.90508
      H1   -10.87921  -11.66784   -8.29315
       H   -14.96605   -2.75451   -4.37440
       O   -14.96365   -2.17891   -5.11398
      H1   -14.04320   -2.26096   -5.40608
       H   -14.60304  -10.22145  -13.27541
       O   -14.97023  -10.73357  -14.01214
      H1   -15.94248  -10.62942  -13.88987
       H   -16.48905   -5.61955   -8.94893
       O   -16.77374   -4.90738   -8.33221
      H1   -16.23100   -4.11203   -8.61228
       H   -13.44250   -0.06146  -10.32780
       O   -12.57922   -0.25196   -9.99133
      H1   -11.99006   -0.06467  -10.82261
       H   -12.41334   -9.79079   -9.01158
       O   -12.79983   -8.99629   -9.36246
      H1   -12.86003   -8.46765   -8.54617
       H    -8.10012   -5.90939   -7.60281
       O    -8.08189   -6.30579   -6.72277
      H1    -7.15032   -6.42371   -6.48543
       H   -13.57266   -2.20761  -12.70218
       O   -12.77010   -1.82560  -13.08212
      H1   -13.06598   -1.40348  -13.91590
       H   -11.71992   -7.52629  -15.10682
       O   -12.05554   -6.62904  -15.12710
      H1   -11.48343   -6.19853  -15.78469
       H   -11.18853   -8.01299  -10.29204
       O   -10.85304   -7.61674  -11.11393
      H1   -11.57132   -7.62479  -11.73067
       H   -12.26780   -1.32647   -4.37922
       O   -12.19455   -1.41719   -5.35202
      H1   -12.55984   -0.63732   -5.70883
       H   -15.64271   -6.66352  -14.53302
       O   -16.22978   -6.71376  -13.73243
      H1   -16.70534   -7.56083  -13.82998
       H    -7.42232   -2.91761  -11.48955
       O    -6.97043   -2.09558  -11.29205
      H1    -7.18155   -1.50668  -12.03804
       H    -7.64362   -9.12541  -13.23379
       O    -7.94966   -8.80049  -14.09295
      H1    -7.91596   -7.84968  -13.98531
       H   -15.09472   -7.88991   -4.83048
       O   -14.38880   -7.25816   -4.98258
      H1   -14.01945   -7.51756   -5.84793
       H    -7.26039   -8.21584  -10.29001
       O    -7.06604   -7.61868   -9.52630
      H1    -6.20174   -7.24209   -9.63080
       H   -11.51083   -3.22731  -13.62648
       O   -10.73183   -3.65837  -14.07344
      H1   -11.01339   -4.53746  -14.41583
       H    -9.29870   -1.61031  -15.99487
       O    -8.94700   -2.50942  -15.78292
      H1    -9.51188   -2.82389  -14.97422
       H   -12.43725   -6.78940   -7.84839
       O   -12.58765   -7.34223   -6.99714
      H1   -11.66827   -7.44680   -6.69338
       H   -10.55662   -8.87688   -5.47775
       O   -10.39335   -7.96546   -5.78081
      H1    -9.48617   -7.89459   -6.08616
       H   -14.67556   -5.22191  -15.88577
       O   -14.57687   -6.17743  -15.94003
      H1   -13.60044   -6.29798  -15.78491
       H    -8.54322   -0.81691   -6.83116
       O    -9.53422   -0.75820   -6.86234
      H1    -9.96284   -1.50413   -6.37723
       H   -13.80616   -7.69893  -12.55770
       O   -13.10410   -7.01142  -12.64823
      H1   -12.71932   -6.91678  -13.57123
       H   -11.92394   -2.21566   -8.60319
       O   -11.79513   -3.09876   -8.17956
      H1   -12.00043   -2.94938   -7.25674
       H   -17.64895   -5.82362  -10.41150
       O   -17.11648   -6.57689  -10.28328
      H1   -16.23303   -6.32253  -10.73704
       H   -15.75423   -3.10162  -15.71784
       O   -14.94153   -3.51402  -15.40877
      H1   -15.18922   -3.55495  -14.49038
       H    -8.95431   -3.35490   -6.10117
       O    -9.79047   -3.67460   -6.46501
      H1   -10.07315   -3.33679   -7.35751
       H    -8.94828   -3.95199  -12.64837
       O    -8.43936   -4.36171  -11.96103
      H1    -8.03987   -5.11204  -12.38300
       H   -11.86302  -11.42749   -6.38514
       O   -12.56326  -10.79158   -6.32127
      H1   -13.39457  -11.20081   -6.63532
       H    -6.31333   -5.29471  -13.75933
       O    -6.83782   -6.12820  -13.85908
      H1    -7.23892   -6.07809  -14.76079
       H    -8.61044   -8.87894   -7.76249
       O    -8.51988   -9.76112   -7.37636
      H1    -9.16440  -10.33992   -7.86563
       H    -7.61096  -11.94455   -9.15308
       O    -6.99472  -11.19378   -9.30108
      H1    -7.42630  -10.50225   -8.80722
       H   -12.41212   -5.46160   -5.77383
       O   -12.03402   -4.57516   -5.48187
      H1   -11.13093   -4.56685   -5.96983
       H   -11.73179   -9.60410  -16.24839
       O   -11.67756   -9.29769  -15.30437
      H1   -11.35120  -10.06694  -14.77414
       H   -13.80119   -5.87807  -11.25039
       O   -14.29464   -5.49469  -10.49582
      H1   -13.65010   -5.37981   -9.77178
       H    -4.81904   -4.85158   -6.74340
       O    -5.53766   -4.22645   -6.99398
      H1    -6.05530   -4.69818   -7.67574

