141
frame 2 | Written by MDAnalysis XYZWriter (release 2.4.3)
       H     3.49491   -5.53653   -5.47022
       O     3.59769   -4.55922   -5.71062
      H1     3.66342   -4.54241   -6.68649
       H     6.95665   -6.08392  -14.42445
       O     7.09238   -6.66754  -13.64538
      H1     7.82234   -6.25762  -13.15949
       H     6.12965   -5.05831  -16.49830
       O     6.52772   -5.00846  -15.61416
      H1     5.92333   -4.29524  -15.25444
       H     3.02787    2.84829  -10.77265
       O     3.76840    2.20506  -10.84345
      H1     4.25173    2.43581  -10.02565
       H     0.17931    1.64992   -8.51656
       O     1.11583    1.70906   -8.82498
      H1     1.10320    1.91925   -9.74307
       H     1.45982   -5.92910  -12.19570
       O     1.45185   -5.11547  -12.74642
      H1     0.74262   -5.18800  -13.37138
       H     0.73106   -3.35170   -9.54562
       O     0.46529   -4.06561   -8.95552
      H1     0.40779   -4.81414   -9.52805
       H     5.67726   -4.96220  -10.61742
       O     4.73324   -5.16477  -10.47558
      H1     4.43454   -4.54851   -9.82150
       H     9.73253    0.23086   -7.30055
       O     9.12777    0.94061   -7.24082
      H1     8.46657    0.85532   -8.01559
       H     1.24817    2.75729  -14.52110
       O     1.93919    2.45036  -13.93587
      H1     1.56444    2.39009  -13.03439
       H     5.16637    3.41005   -7.70314
       O     4.89555    2.78480   -8.42759
      H1     4.32715    2.09508   -8.01282
       H    -0.06484    1.47157  -11.94700
       O     0.71714    2.05101  -11.69747
      H1     0.39368    2.95012  -11.49467
       H     5.49955   -1.00204  -10.33597
       O     6.12232   -0.77976  -11.05434
      H1     5.60678   -0.27438  -11.71231
       H     7.29986   -5.35795   -6.38966
       O     7.59774   -4.57754   -6.87397
      H1     6.89336   -3.90324   -6.55747
       H     6.54482    2.44565  -12.96163
       O     6.64204    1.70588  -13.57860
      H1     7.35027    1.14017  -13.31838
       H    10.45142   -3.10649  -11.94778
       O    10.55094   -3.41814  -12.83595
      H1    10.20599   -2.71381  -13.37725
       H     8.50066    4.28223  -15.21097
       O     9.06263    3.82685  -14.51462
      H1     8.49243    3.07901  -14.29359
       H     9.62581   -1.48078  -15.29986
       O    10.43582   -1.95133  -15.06962
      H1    11.10668   -1.31113  -15.09569
       H     6.11622    4.54570  -12.06637
       O     5.92953    3.70915  -11.61389
      H1     5.04907    3.34415  -11.79454
       H     4.14133   -3.01421  -13.84904
       O     4.93060   -3.07565  -14.37704
      H1     5.24232   -2.26333  -14.75647
       H     6.94986    5.74171   -8.97469
       O     7.28973    5.04797   -9.54178
      H1     6.52690    4.69939   -9.95985
       H     7.39408   -4.02498   -9.56520
       O     7.38719   -4.49529  -10.39825
      H1     7.34039   -3.83415  -11.11340
       H     2.79315   -2.26794  -12.10234
       O     2.68986   -2.81285  -12.89638
      H1     2.16907   -3.59935  -12.62597
       H    10.56352   -4.93115   -8.60453
       O    10.04517   -4.33305   -7.96205
      H1     9.22788   -4.80750   -7.78850
       H     8.13328    2.28288  -11.10401
       O     8.82313    2.74639  -11.61880
      H1     9.00267    3.45380  -11.04704
       H     3.59334    0.18509   -4.30756
       O     2.73180   -0.05404   -4.68157
      H1     2.70763   -1.01947   -4.80158
       H     3.46985    0.74533  -11.83567
       O     3.37687   -0.13057  -12.22760
      H1     3.67199   -0.02762  -13.14527
       H     5.86079   -0.46235  -16.63009
       O     6.25380   -1.13314  -16.04571
      H1     6.90272   -1.64462  -16.53329
       H     5.10866    3.89479   -5.39657
       O     5.81784    3.69605   -6.03233
      H1     6.38085    3.01088   -5.66045
       H     5.10539    1.33946  -14.46055
       O     4.26004    0.99949  -14.72204
      H1     3.50874    1.49252  -14.46750
       H     6.66199    0.23726   -9.82907
       O     6.96050    0.91430   -9.18612
      H1     6.19615    1.50000   -9.13653
       H    10.11988   -2.13509   -9.83439
       O    10.75436   -2.07164  -10.53488
      H1    10.69339   -1.14454  -10.86922
       H     2.84160    0.57632   -6.36117
       O     3.14346    0.78579   -7.24938
      H1     2.33700    1.13319   -7.64078
       H     1.12527   -2.36044  -13.77510
       O     0.44609   -1.84898  -14.25928
      H1    -0.34211   -2.47630  -14.21135
       H     8.12582   -1.25932  -13.28234
       O     8.46882   -0.37160  -13.45906
      H1     9.30427   -0.33244  -13.03909
       H     9.89832    1.19618  -11.50755
       O    10.41101    0.45918  -11.82506
      H1    11.09111    0.80622  -12.40673
       H     8.50021   -1.35422   -7.36325
       O     8.65766   -1.85678   -8.16636
      H1     9.08061   -2.70270   -7.90625
       H     5.34732   -2.90352   -5.39950
       O     6.10139   -2.61271   -5.91798
      H1     6.74695   -2.18180   -5.33906
       H     0.28670   -1.08766   -9.96760
       O     1.18969   -1.31893   -9.95789
      H1     1.75448   -0.53828   -9.77649
       H     7.46129   -0.13885   -4.68693
       O     7.88485   -1.01046   -4.87544
      H1     8.41312   -1.29844   -4.15997
       H     6.85680   -1.93448  -12.00076
       O     7.15084   -2.75035  -12.53734
      H1     6.35363   -3.03066  -13.10380
       H     8.68650    1.84133   -5.73857
       O     8.43543    2.48725   -5.10920
      H1     8.83597    3.30306   -5.47866
       H     9.72326   -5.00652  -12.30339
       O     9.09197   -5.77912  -12.02252
      H1     8.63736   -5.27852  -11.29716
       H     4.58536   -6.84462  -10.88362
       O     4.36773   -7.79319  -10.78006
      H1     4.92742   -8.30582  -11.45180
       H     3.37450    4.49345   -7.76466
       O     2.86149    5.14289   -8.25952
      H1     2.00573    5.04353   -7.84156
       H     5.51855   -1.49116   -7.79578
       O     4.64938   -1.41408   -8.17725
      H1     4.26447   -0.62822   -7.70431
       H     3.78125   -3.00522   -8.32053
       O     3.58223   -3.97888   -8.32079
      H1     2.65877   -4.16026   -8.19272

