141
frame 4 | Written by MDAnalysis XYZWriter (release 2.4.3)
       H    -1.94081  -16.83517  -10.38801
       O    -2.83673  -16.45691  -10.26294
      H1    -2.73999  -15.51911  -10.13839
       H     3.53668  -17.02035   -9.98765
       O     2.94793  -17.78452   -9.86930
      H1     3.03429  -18.28416  -10.70444
       H    -5.94445  -19.41693  -16.91498
       O    -5.58276  -18.50788  -16.69227
      H1    -5.38611  -18.47523  -15.76577
       H    -4.81517  -11.75821  -15.70066
       O    -4.58277  -12.64508  -15.36120
      H1    -4.15829  -13.17639  -16.09038
       H     0.45550  -19.23094  -16.31294
       O     1.31172  -18.97910  -16.06507
      H1     1.76894  -18.96662  -16.90464
       H     0.86440  -10.58904  -10.95521
       O     1.07585   -9.97887  -11.68622
      H1     0.31593   -9.93472  -12.26041
       H     5.21223  -16.05260  -15.85183
       O     5.53829  -15.46371  -15.15639
      H1     6.30487  -15.85150  -14.70920
       H     6.77957  -13.51183  -12.15187
       O     5.98438  -13.15903  -12.59432
      H1     6.17927  -12.22555  -12.49371
       H    -4.09703  -18.32658  -14.12630
       O    -4.05219  -17.42665  -14.47227
      H1    -3.17293  -17.07240  -14.27923
       H     3.46580  -17.20339  -16.70661
       O     4.21722  -17.83538  -16.73787
      H1     4.39384  -18.21872  -15.82801
       H    -1.78794  -11.95524  -17.39614
       O    -1.07541  -12.66021  -17.32532
      H1    -0.91941  -12.94527  -18.23000
       H     5.10886  -12.18151  -14.93450
       O     5.28947  -12.80671  -15.64296
      H1     5.46200  -13.58586  -15.11643
       H    -6.26044  -14.87338  -12.13215
       O    -5.29913  -14.64523  -12.00661
      H1    -5.35568  -13.71158  -12.26474
       H    -5.00735  -15.73700  -14.53052
       O    -5.66901  -15.26923  -15.07421
      H1    -5.09767  -14.46970  -15.15187
       H    -1.15694  -16.74105  -12.73810
       O    -1.15704  -17.53034  -13.24332
      H1    -0.57872  -18.01618  -12.61351
       H     1.05203   -9.94590  -16.22889
       O     0.57638   -9.10389  -16.13204
      H1     1.26770   -8.56563  -15.79733
       H     0.48562  -15.07899  -13.83383
       O     0.85135  -15.60033  -14.56415
      H1     0.28561  -16.39711  -14.55203
       H     1.54178  -15.48673  -16.49443
       O     2.08791  -15.61252  -17.29366
      H1     2.78648  -14.93120  -17.40958
       H     3.10840  -19.90453  -12.82201
       O     2.85530  -19.08068  -12.41784
      H1     3.16496  -18.42833  -13.07206
       H     2.77266  -12.36354   -8.59077
       O     3.59708  -12.16712   -9.14785
      H1     3.32717  -12.60004  -10.01163
       H    -3.12670  -17.94946  -18.68698
       O    -2.65073  -18.58146  -19.22416
      H1    -2.21755  -18.17894  -20.03008
       H    -2.48258  -13.63652  -17.31033
       O    -3.32242  -14.10925  -17.51316
      H1    -3.16871  -15.07500  -17.32990
       H     0.98928  -15.86310  -18.81782
       O     0.39971  -15.93585  -19.59464
      H1     1.05556  -15.74818  -20.31197
       H    -4.32118  -14.23322  -10.05342
       O    -3.46285  -13.81666   -9.78445
      H1    -3.69068  -13.18608   -9.04120
       H     1.84548  -12.30361  -15.69600
       O     1.43271  -11.76120  -16.32290
      H1     0.61290  -12.26255  -16.46535
       H    -3.40111  -10.46649  -17.24088
       O    -2.70152  -10.73993  -16.65629
      H1    -3.04602  -10.56625  -15.78230
       H     0.34206  -13.98948  -11.44211
       O     0.05374  -14.24514  -12.35471
      H1    -0.34884  -13.51302  -12.83957
       H    -1.04185  -11.76158  -10.39303
       O    -0.17399  -11.73780   -9.91774
      H1     0.24994  -12.61167   -9.80985
       H     4.14111  -16.06344  -14.36801
       O     3.42790  -16.55857  -13.87241
      H1     2.55105  -16.13510  -14.10413
       H     3.52561  -12.80626  -18.59927
       O     4.03930  -13.47265  -18.07604
      H1     4.52706  -13.10032  -17.36101
       H     4.29511  -16.30871  -12.19746
       O     4.50046  -15.83800  -11.31946
      H1     5.17183  -15.17098  -11.58820
       H     2.32626  -11.90233  -18.07736
       O     2.29214  -11.83935  -19.06279
      H1     2.08032  -10.89105  -19.31570
       H     5.07486  -10.02132  -13.42215
       O     4.55924  -10.61440  -13.98762
      H1     3.88712  -10.96650  -13.35148
       H    -2.22769  -17.33525  -16.58230
       O    -2.93203  -16.82237  -16.96693
      H1    -3.66974  -17.05867  -16.36673
       H     0.99364  -17.10164  -10.13802
       O     0.10880  -17.44828  -10.10317
      H1     0.35590  -18.26608   -9.66321
       H    -3.04448  -11.23580  -11.20802
       O    -2.55057  -12.03209  -11.48159
      H1    -2.84970  -12.77276  -10.91593
       H     6.43215  -19.71033  -18.65951
       O     5.62874  -19.23469  -18.89976
      H1     5.30744  -18.67896  -18.16549
       H     3.73522   -7.76589  -14.67790
       O     3.34682   -8.56761  -15.11449
      H1     3.75299   -9.28185  -14.63015
       H    -2.00396  -20.19517  -16.81563
       O    -1.56424  -19.36114  -16.99517
      H1    -1.99338  -19.03469  -17.82931
       H     1.23572  -15.86894   -7.33516
       O     0.55013  -15.61475   -7.99731
      H1     0.40513  -16.48571   -8.46487
       H     2.23540  -14.52651  -10.50694
       O     1.38897  -14.11534  -10.22304
      H1     1.10659  -14.58830   -9.38060
       H     3.75477  -13.91271   -8.04013
       O     3.97298  -14.82932   -8.05847
      H1     4.90105  -14.87435   -7.74498
       H    -1.70158  -12.93020  -14.73043
       O    -1.21655  -12.53230  -14.00764
      H1    -1.91551  -12.33286  -13.39025
       H     3.24830  -18.43444   -8.49866
       O     3.19722  -18.69141   -7.56016
      H1     3.08178  -17.87632   -7.05079
       H    -0.73057  -10.72139  -14.05775
       O    -0.47502   -9.81686  -13.86948
      H1     0.06327   -9.51292  -14.60221
       H     2.06457  -13.05577  -12.24717
       O     2.76399  -12.45486  -11.92389
      H1     2.45392  -11.50569  -12.02714
       H     8.62137  -16.13008  -13.83873
       O     7.86725  -16.67237  -13.67635
      H1     8.26258  -17.53896  -13.44974

