141
frame 8 | Written by MDAnalysis XYZWriter (release 2.4.3)
       H     7.01151   -6.23868  -12.90190
       O     7.84954   -6.65277  -12.63998
      H1     8.04771   -6.44413  -11.75288
       H     8.97857   -4.50944  -15.09047
       O     8.65622   -3.61804  -14.95020
      H1     7.75374   -3.59083  -14.60969
       H     3.13240   -4.56757  -10.58849
       O     2.63045   -4.59926  -11.37538
      H1     1.87024   -5.18605  -11.38603
       H     7.15854    2.15652  -17.32001
       O     6.50066    1.49387  -17.59832
      H1     5.81852    2.11751  -18.01707
       H     0.16781   -3.84012   -9.98374
       O    -0.26393   -2.99248  -10.02013
      H1    -0.87236   -3.03329   -9.21081
       H     3.23309   -4.38931  -17.99884
       O     3.99514   -4.89170  -17.78419
      H1     4.02859   -5.80013  -18.10978
       H     4.57714   -3.66619   -9.15407
       O     3.81279   -4.24019   -9.09798
      H1     3.09356   -3.59854   -8.84768
       H     5.08950   -5.31752  -16.56534
       O     5.73000   -5.72294  -15.87222
      H1     6.59734   -5.57111  -16.26163
       H     1.34679    2.86957  -15.47198
       O     1.05492    3.65657  -14.89352
      H1     0.93179    3.40141  -13.99422
       H     2.74736   -9.38766  -16.01359
       O     3.03896   -8.47051  -15.99370
      H1     3.97061   -8.47927  -15.63541
       H     4.89449   -0.24967   -9.65959
       O     5.35429    0.13200  -10.44937
      H1     4.63803    0.43752  -11.03885
       H     4.55386    3.23435  -14.72947
       O     4.40780    2.26397  -14.64853
      H1     5.23102    1.75696  -14.74211
       H     1.15565   -1.09078  -14.82152
       O     1.32916   -1.04664  -15.76224
      H1     1.69352   -0.11984  -15.86984
       H     5.49122   -3.02872  -13.61170
       O     6.25635   -2.51985  -13.85993
      H1     5.83749   -1.69938  -14.21105
       H     7.49063   -3.13970   -8.41285
       O     6.96042   -3.72092   -8.92861
      H1     6.97018   -3.38349   -9.84434
       H     2.71282   -1.55598  -11.95015
       O     3.22338   -2.25448  -12.36058
      H1     2.90291   -3.07355  -11.90591
       H     1.31342    2.61406  -12.00422
       O     0.58248    3.24855  -12.04837
      H1    -0.26844    2.74702  -12.16268
       H     0.87527    0.08143  -10.14269
       O     1.55524    0.13954  -10.83442
      H1     1.86612    1.05614  -10.84683
       H    -0.55540   -6.26493  -12.13108
       O     0.40572   -6.14188  -12.22822
      H1     0.56650   -6.69775  -12.99214
       H     7.19463    0.53832  -14.74579
       O     6.30279    0.52451  -15.07933
      H1     6.40073    0.93817  -15.93231
       H     5.12488   -4.33887  -19.03394
       O     5.87157   -3.98075  -19.53521
      H1     5.45182   -3.24632  -19.97297
       H     5.81699   -8.59911  -14.05636
       O     5.98427   -8.22492  -14.90084
      H1     6.06159   -7.28234  -14.84047
       H     4.01427   -7.92365  -17.42228
       O     4.51982   -7.68332  -18.18879
      H1     5.38301   -7.94070  -17.92353
       H     3.89857    1.71032  -13.02698
       O     3.56349    1.57291  -12.11754
      H1     3.65069    2.44106  -11.60943
       H     6.47476    1.28961   -9.75033
       O     7.13605    1.90537   -9.36178
      H1     6.67327    2.71115   -9.12734
       H    -0.65323   -0.07542  -18.97729
       O     0.17628   -0.61694  -19.04971
      H1    -0.04342   -1.43107  -18.62107
       H    -1.78538    1.44841  -13.57894
       O    -1.09015    1.35374  -14.30524
      H1    -0.48008    0.62246  -13.98167
       H     0.49045   -0.38616  -12.23726
       O     0.29965   -0.66719  -13.10081
      H1    -0.29887   -1.45256  -12.97229
       H     9.57399    0.08785  -13.74330
       O     8.93694    0.78564  -13.62154
      H1     8.85688    1.14597  -12.75807
       H     9.74079   -2.27553   -9.66782
       O     9.88956   -2.21417  -10.61268
      H1     8.99328   -2.21035  -11.01276
       H    -1.88225    0.35865  -17.00514
       O    -2.54485    0.20524  -16.29209
      H1    -2.19047    0.63612  -15.48100
       H    -0.03431   -2.09777  -16.54621
       O    -0.53690   -2.66409  -17.20577
      H1    -1.44997   -2.59911  -16.94926
       H    11.01115   -1.49905  -13.68553
       O    10.15157   -1.38770  -14.18282
      H1     9.66488   -2.17964  -14.31929
       H     3.65282   -8.49417  -11.48736
       O     4.39079   -8.53526  -12.18601
      H1     5.15198   -8.08958  -11.74024
       H     4.81256   -5.84316  -12.83005
       O     5.38238   -5.18718  -13.23986
      H1     5.46585   -5.26524  -14.18578
       H     1.80850   -4.59248  -19.20570
       O     1.38871   -4.20168  -18.41846
      H1     0.43567   -4.46418  -18.43889
       H    -0.96741   -2.80449  -11.56315
       O    -1.46042   -2.72482  -12.38535
      H1    -1.52077   -3.56787  -12.76696
       H     3.24322    1.72222  -15.66332
       O     2.66580    1.23171  -16.26632
      H1     3.19256    0.69067  -16.84835
       H     1.61809   -7.67420  -15.49098
       O     0.88845   -7.25777  -15.01134
      H1     0.88340   -6.30312  -15.27565
       H     1.57151   -4.28668  -15.42491
       O     0.68898   -4.57735  -15.68679
      H1     0.20572   -3.96423  -16.24615
       H     6.70958   -1.42482  -11.13576
       O     7.16611   -2.24347  -11.29147
      H1     6.78163   -2.37179  -12.21157
       H     2.81738   -1.69907  -15.28610
       O     3.45716   -2.38321  -15.02670
      H1     3.41386   -2.37448  -14.01483
       H    -1.66573   -5.93879  -13.66833
       O    -1.77462   -5.00584  -13.93110
      H1    -0.97421   -4.95387  -14.49613
       H     4.14894   -1.57118   -7.23318
       O     3.81332   -0.96163   -7.91506
      H1     3.64723   -0.13964   -7.41501
       H     8.13690   -3.32386  -17.17359
       O     7.91036   -4.00835  -17.79785
      H1     7.13732   -3.67009  -18.25663
       H     4.20888   -1.45023  -16.52377
       O     4.18135   -1.01794  -17.39221
      H1     5.05382   -0.92266  -17.71638
       H     2.35957   -1.89255   -7.97635
       O     1.77702   -2.66088   -8.15951
      H1     1.08174   -2.39320   -8.74008

