141
frame 0 | Written by MDAnalysis XYZWriter (release 2.4.3)
       H     5.26158   16.96310  -13.30493
       O     4.91371   17.63256  -13.91863
      H1     3.96332   17.62746  -13.77042
       H    -4.11233   14.56976  -10.47154
       O    -4.32906   14.49814  -11.43600
      H1    -4.36745   13.62225  -11.79373
       H    -6.38927   14.16697  -15.43726
       O    -6.75696   14.30502  -16.28859
      H1    -6.14847   14.98647  -16.59244
       H    -1.36178   18.04914  -13.87791
       O    -0.89617   18.88888  -13.96269
      H1     0.02747   18.61248  -14.12831
       H    -5.00431   18.62971  -11.24919
       O    -5.87595   18.78131  -11.68608
      H1    -5.90859   19.66542  -12.03353
       H     7.71219   18.17585  -17.68858
       O     7.12720   18.77362  -18.18261
      H1     7.77240   19.50919  -18.42814
       H     7.40748   16.28531  -11.79900
       O     6.49190   16.09880  -11.65669
      H1     6.53144   16.29796  -10.71038
       H     3.12329   15.75427  -16.27078
       O     3.76913   16.07685  -16.94103
      H1     3.51340   17.03185  -17.17650
       H    -6.17297   19.64596  -15.14035
       O    -5.38677   19.28035  -14.69178
      H1    -5.45709   18.30656  -14.86058
       H     4.08446   12.21206  -12.29233
       O     4.07699   11.86166  -11.42074
      H1     3.16831   11.77026  -11.16060
       H     2.98089   15.15207  -11.29112
       O     3.13666   15.16735  -12.28053
      H1     2.38096   14.95515  -12.79213
       H     5.39097   15.35508  -16.57471
       O     6.30968   15.18178  -16.40392
      H1     6.40300   14.83584  -15.51232
       H    -4.32502   16.58567  -17.94512
       O    -4.36129   15.61672  -17.86775
      H1    -4.88124   15.48094  -18.71951
       H    -2.89351   19.08003  -10.97540
       O    -3.31011   18.31511  -10.53003
      H1    -3.85866   18.67413   -9.82747
       H    -8.32624   16.32494  -18.40511
       O    -7.46182   16.76316  -18.45784
      H1    -7.06698   16.55246  -19.32147
       H    -1.30615   18.56027  -16.60483
       O    -1.89742   18.02582  -17.15252
      H1    -1.48338   17.13611  -16.91621
       H    -1.09235   12.05503  -15.42561
       O    -1.25470   12.91393  -14.93604
      H1    -1.36264   13.66473  -15.48622
       H     9.21069   19.31656  -15.00743
       O     9.88408   18.73746  -14.57499
      H1     9.62418   17.79134  -14.70980
       H     1.59451    9.11132  -18.76148
       O     0.98056    9.78955  -19.03624
      H1     0.92763    9.78895  -20.00951
       H     0.60949   10.67951  -15.92253
       O    -0.08021   10.15614  -15.59755
      H1    -0.88830   10.15055  -16.15957
       H    -7.17193   18.14463  -17.51911
       O    -6.94284   18.99140  -17.10638
      H1    -7.42347   19.51913  -17.76923
       H     8.99182   14.86623  -15.20090
       O     9.69270   15.28847  -15.73481
      H1     9.18426   15.80617  -16.40759
       H     3.21657   18.73327  -11.99237
       O     3.08478   19.29170  -11.26171
      H1     2.32380   18.99138  -10.80350
       H     1.68451   15.07620  -18.76227
       O     2.40301   15.40542  -19.22348
      H1     3.04069   15.92151  -18.69121
       H     8.81743   16.59319  -18.75515
       O     9.04113   16.89364  -17.85870
      H1     9.90691   17.33096  -18.03321
       H     1.77738   17.25001  -13.92549
       O     2.00429   18.10290  -14.21344
      H1     2.39230   17.96659  -15.08692
       H    -7.00792   16.31543  -13.56537
       O    -7.93110   16.16967  -13.81383
      H1    -8.10935   16.83882  -14.55514
       H    -8.39651   18.42740  -16.12655
       O    -8.99865   17.77702  -15.71799
      H1    -9.71327   18.23486  -15.29862
       H    -0.24328   11.99189  -12.16706
       O    -1.14228   11.69503  -12.28076
      H1    -1.45560   12.01687  -13.09773
       H     6.94722   14.17603  -17.73376
       O     7.33393   13.62025  -18.42456
      H1     8.19208   13.34996  -18.03465
       H    -0.95405   13.84932  -19.02371
       O    -0.35963   14.30993  -18.37988
      H1    -0.99450   14.86667  -17.84926
       H     2.74126   12.43481  -16.38567
       O     3.19388   12.71166  -15.55436
      H1     4.10615   12.58474  -15.73418
       H    -7.63815   13.29871  -19.45506
       O    -6.86290   12.94414  -18.93619
      H1    -6.86883   13.33255  -18.08395
       H    -5.11755   18.82172  -17.53344
       O    -4.39883   18.31865  -17.96235
      H1    -3.61487   18.49173  -17.43590
       H     1.93477   18.71361  -17.56364
       O     2.66977   18.50223  -16.95849
      H1     3.31792   19.16745  -17.31877
       H    -2.47686   15.22447  -16.90246
       O    -1.76289   15.38464  -16.25671
      H1    -2.11307   15.77487  -15.46348
       H     6.52598   11.89286  -17.82481
       O     6.52926   10.97740  -17.43460
      H1     6.34576   10.36570  -18.13416
       H     0.54344   17.52892  -19.86213
       O     0.57729   18.07437  -19.03756
      H1    -0.30214   18.22289  -18.73730
       H    -0.72774   10.20209  -19.00223
       O    -1.63048   10.43262  -19.19389
      H1    -2.03434    9.57321  -19.52155
       H     2.32377   13.98801  -14.68307
       O     1.53914   14.44316  -14.46282
      H1     0.86325   13.82456  -14.72042
       H     6.20634   10.83646  -14.62643
       O     6.04345   11.53448  -14.02962
      H1     6.63169   12.30823  -14.24744
       H    -1.73860   15.71411  -13.25520
       O    -2.07781   16.57203  -13.43184
      H1    -2.93175   16.58442  -12.91180
       H     0.51964   12.82225  -17.92511
       O     0.95391   12.05588  -17.47198
      H1     0.88689   11.31692  -18.08016
       H    -4.94304   15.95095  -12.44592
       O    -5.23382   16.67005  -12.99226
      H1    -5.64133   17.37850  -12.42601
       H     7.90861   13.83792  -13.35017
       O     7.80197   13.47742  -14.26492
      H1     8.59458   12.95529  -14.49710
       H    -0.69602   16.12282   -9.20029
       O    -1.46057   16.12335   -9.85414
      H1    -1.89547   16.98777   -9.96819
       H    -3.72725   10.16961  -16.39318
       O    -2.80193    9.97925  -16.57006
      H1    -2.63534   10.26510  -17.47238

