141
frame 11 | Written by MDAnalysis XYZWriter (release 2.4.3)
       H    -8.74220   18.16139   -7.17378
       O    -8.73523   18.24618   -6.19167
      H1    -9.60652   18.54340   -5.90535
       H   -19.18836   11.75034   -8.38081
       O   -18.97851   10.84752   -8.34151
      H1   -19.52486   10.56471   -7.57314
       H   -12.73838   15.18631    0.18308
       O   -12.73283   15.95249   -0.40319
      H1   -13.18615   15.57807   -1.17763
       H   -17.97066   12.24900   -5.99283
       O   -18.70624   12.92342   -5.82331
      H1   -19.53109   12.59886   -6.14877
       H   -14.16918   11.63204  -10.43146
       O   -14.20503   11.81637   -9.49360
      H1   -14.99204   12.38393   -9.39280
       H   -14.40436   11.27151  -12.80415
       O   -14.47983   10.79689  -11.94943
      H1   -15.41974   10.59769  -11.84002
       H   -15.04457   16.96793  -12.04181
       O   -15.35914   17.68394  -12.59960
      H1   -15.56761   18.40812  -11.97756
       H   -19.48079   16.89904  -11.50561
       O   -19.66623   17.34621  -10.68266
      H1   -19.18428   16.83672  -10.01040
       H   -11.69406   19.44403   -4.73789
       O   -11.42153   18.78694   -5.33667
      H1   -11.78271   19.06600   -6.16219
       H   -10.61683   16.38424  -10.09415
       O   -11.25247   16.64852  -10.80873
      H1   -10.68428   17.26586  -11.35767
       H   -13.41929   15.76301   -3.47533
       O   -14.08393   15.45823   -2.81819
      H1   -14.91638   15.92805   -2.94969
       H   -16.89436   17.01081  -13.77701
       O   -17.47466   17.09811  -14.53315
      H1   -17.51203   18.05577  -14.75945
       H   -13.72376   12.83331   -4.47860
       O   -14.30882   12.93547   -5.22117
      H1   -13.72014   13.04652   -6.00562
       H   -11.88206   15.50517  -14.58488
       O   -12.01418   14.53883  -14.50734
      H1   -11.16357   14.18787  -14.73341
       H   -11.40874   15.68869   -4.37315
       O   -12.21774   16.22210   -4.53334
      H1   -11.87156   17.13773   -4.57871
       H   -16.07824   17.73398   -2.07738
       O   -16.49438   16.87046   -2.31269
      H1   -16.90039   16.91810   -3.17389
       H    -7.44336   15.31626  -11.40725
       O    -8.23292   15.84126  -11.30623
      H1    -8.20715   16.24757  -10.43341
       H   -15.69555   19.80476   -0.82194
       O   -15.14399   19.13896   -1.28540
      H1   -14.58007   18.95576   -0.50427
       H    -9.76513   18.11026  -13.37987
       O    -9.50970   17.98414  -12.46262
      H1    -9.00570   17.17613  -12.52491
       H   -14.38418   13.75840   -2.27378
       O   -13.98521   12.97457   -1.86419
      H1   -14.65376   12.29903   -1.68692
       H    -8.69326   18.51764   -9.68470
       O    -8.46658   17.93805   -8.94067
      H1    -9.14170   17.24402   -8.94663
       H    -9.97180   15.71218   -7.53246
       O   -10.47139   15.99788   -8.29324
      H1   -11.35209   16.06367   -7.95348
       H   -17.08824   14.40928  -11.89605
       O   -17.85984   14.29938  -11.28801
      H1   -18.64171   14.67602  -11.79069
       H    -8.70287   16.45368   -5.96667
       O    -8.81071   15.46312   -5.81753
      H1    -7.94258   15.07784   -5.89958
       H   -16.92992   13.69047   -9.50092
       O   -16.90196   13.10232   -8.75192
      H1   -16.69721   13.60933   -7.97866
       H   -15.00494   15.98548   -9.92975
       O   -15.01028   15.43823  -10.71470
      H1   -14.12012   15.21800  -10.92155
       H    -8.86904   16.07044   -4.22206
       O    -8.97600   16.31939   -3.27198
      H1    -8.39292   17.14940   -3.15738
       H   -18.05206   13.91387   -2.98252
       O   -17.81151   13.08570   -3.34084
      H1   -18.27190   12.99841   -4.16032
       H   -13.69840   16.37013   -7.29785
       O   -12.89848   15.80095   -7.15998
      H1   -12.49946   16.02099   -6.29553
       H   -10.09461   12.83345   -9.52076
       O   -10.05029   12.57832   -8.52505
      H1   -10.94326   12.75938   -8.20612
       H   -18.68224   16.95731   -4.16587
       O   -17.82638   17.25452   -4.51040
      H1   -17.85196   16.97430   -5.38352
       H   -16.47263   19.65974   -8.96449
       O   -16.57701   19.07366   -8.18637
      H1   -16.44012   19.60745   -7.41150
       H   -13.20298   12.80842   -8.32399
       O   -12.63597   13.10017   -7.61510
      H1   -12.82001   14.07644   -7.50792
       H   -17.92319   17.63853   -8.16746
       O   -18.46875   16.84106   -8.13877
      H1   -19.30727   17.01878   -7.61109
       H   -15.38966   17.74029   -8.01632
       O   -15.22187   16.77041   -8.01900
      H1   -15.74680   16.34692   -7.28882
       H   -16.30870   10.75587   -6.97002
       O   -16.35875   11.17844   -6.10504
      H1   -15.46671   11.47070   -5.88974
       H   -18.94639   16.76871  -13.56558
       O   -19.72206   16.36015  -13.15839
      H1   -20.35209   16.25210  -13.86999
       H   -15.70852   14.17300  -14.59887
       O   -16.26439   14.50394  -13.86226
      H1   -17.09016   14.24004  -14.27830
       H   -11.11144   19.98845  -10.55964
       O   -11.75454   19.37439  -10.19702
      H1   -11.52102   18.60193  -10.67256
       H   -17.33050   10.47315   -9.93093
       O   -17.11905   10.06507  -10.72248
      H1   -17.58808    9.20665  -10.71666
       H   -12.34533   14.33733  -12.98427
       O   -12.42717   14.13856  -12.02598
      H1   -12.24709   14.95108  -11.50831
       H   -14.55266   17.80526  -15.75481
       O   -14.10875   18.37169  -15.07448
      H1   -14.54289   18.10508  -14.24932
       H   -18.18214   16.00541   -1.64480
       O   -18.80866   15.30592   -1.81865
      H1   -19.72469   15.63165   -1.77249
       H   -10.93384   13.74230  -11.60468
       O   -10.07547   13.59514  -11.19477
      H1    -9.56993   14.43724  -11.29012
       H   -17.82181   11.14135  -12.11364
       O   -18.20354   11.43322  -12.96138
      H1   -18.44669   10.63395  -13.44549
       H   -15.37839    8.83288   -9.34139
       O   -15.08215    9.34487   -8.54994
      H1   -14.89778   10.22167   -8.93042
       H   -15.75031   14.03972   -5.70198
       O   -16.45982   14.50054   -6.07927
      H1   -17.30678   14.14003   -5.76790

