141
frame 11 | Written by MDAnalysis XYZWriter (release 2.4.3)
       H    13.25902   10.16049  -13.11401
       O    13.40250   11.05392  -13.19993
      H1    13.97084   11.36646  -12.51549
       H    15.61765    3.74739  -18.85026
       O    15.59789    4.70760  -18.72900
      H1    15.73607    5.06919  -19.59462
       H    13.09906   12.42434  -15.61315
       O    13.64812   13.09151  -16.07795
      H1    14.46418   12.96576  -15.56277
       H    17.18711   14.89142  -15.98639
       O    17.19853   14.85331  -15.00369
      H1    16.60513   14.17365  -14.76040
       H    13.70547    0.96049  -14.91683
       O    14.27830    0.43998  -15.50833
      H1    15.18688    0.78519  -15.37260
       H    13.91858    1.83657  -18.69354
       O    14.35406    2.01716  -17.81066
      H1    14.22765    1.22354  -17.21514
       H    15.31354   13.31650  -10.81324
       O    15.70961   12.69963  -11.45819
      H1    16.62605   12.65625  -11.14249
       H    13.83505    7.36579  -16.06712
       O    14.77502    7.63542  -16.13258
      H1    15.30202    6.79722  -16.07147
       H    13.01923    4.08227  -11.37339
       O    13.97649    4.31302  -11.45556
      H1    14.24597    4.05310  -12.35245
       H    19.40028   10.10584   -9.73519
       O    18.99550    9.36891  -10.26613
      H1    18.03767    9.46873  -10.10137
       H    17.35433    0.39687  -14.79297
       O    16.92712    1.11979  -15.27346
      H1    17.00121    0.88691  -16.20925
       H    18.39775    4.47093  -19.26637
       O    18.82548    3.62479  -19.26549
      H1    19.83117    3.69664  -19.22531
       H    17.28834   10.87509  -15.04531
       O    17.84640   11.62956  -15.10844
      H1    18.12744   11.50353  -15.97868
       H    12.34392    7.56221  -14.76340
       O    12.15578    7.07566  -15.53236
      H1    12.06481    6.17134  -15.22936
       H    14.24773    7.76144  -13.21013
       O    13.34570    7.99427  -12.97281
      H1    13.23820    7.81764  -12.05138
       H     8.36073    4.87762  -15.96929
       O     9.18107    5.25139  -15.68138
      H1     9.14782    6.23037  -15.64861
       H    15.60373    8.94477  -15.13679
       O    16.01041    9.50519  -14.45766
      H1    15.31357   10.12366  -14.16848
       H    18.15470   10.86670  -18.44662
       O    18.59403   10.58703  -17.66250
      H1    19.51378   10.81602  -17.90054
       H    19.08250   -0.17416  -13.79591
       O    18.27864   -0.67396  -13.88543
      H1    18.60087   -1.29475  -14.53567
       H     9.30779    9.12629  -12.95135
       O     9.62656    8.23119  -13.33789
      H1     9.57019    8.26406  -14.33315
       H    16.29643   12.32416  -14.42848
       O    15.53152   12.88171  -14.23422
      H1    15.52844   13.10748  -13.32441
       H    11.76559    7.69907  -18.47473
       O    10.90174    7.31721  -18.35650
      H1    10.82663    7.04457  -17.41952
       H    10.32725    4.20828  -16.90704
       O    10.91837    3.73704  -17.57994
      H1    10.87999    4.26179  -18.40643
       H    18.84544   11.09921  -11.11087
       O    18.69855   12.03976  -11.08410
      H1    19.43348   12.46651  -11.57249
       H    19.52274    0.89795   -8.91316
       O    19.77283    1.66651   -9.42518
      H1    18.99067    1.71992   -9.98899
       H    18.59513    5.19579  -11.57075
       O    19.55029    4.96657  -11.65733
      H1    19.75922    4.68581  -12.55241
       H    16.12499    8.56965  -11.73026
       O    16.28263    7.80693  -12.31374
      H1    16.50022    8.16816  -13.18330
       H    16.94178    4.68648  -15.19893
       O    17.08342    3.98443  -14.52863
      H1    17.09099    3.12640  -14.97247
       H    13.18274    2.63270  -14.51271
       O    12.96921    1.97722  -13.82583
      H1    13.77479    1.94564  -13.34552
       H    10.68698    8.08100  -11.79983
       O    11.18935    8.08232  -10.92967
      H1    10.63653    7.58040  -10.30475
       H     8.09794    8.07163  -15.86820
       O     9.07596    8.03992  -15.96873
      H1     9.31480    8.70163  -16.63251
       H    17.29281    2.93597  -11.23485
       O    17.53704    2.03484  -11.51132
      H1    16.75182    1.65803  -11.91909
       H    13.84949    3.29906  -16.49185
       O    13.29169    3.63017  -15.80244
      H1    12.43448    3.38143  -16.18291
       H    15.58776    9.11725   -9.73280
       O    16.21893    9.74842  -10.21382
      H1    15.79775   10.64841  -10.12484
       H    14.17961   12.44893  -17.91681
       O    14.48989   12.16374  -18.78456
      H1    15.42037   12.41436  -18.77081
       H    19.32853    7.72692  -16.68945
       O    18.47746    8.05214  -16.44569
      H1    18.41184    8.86557  -16.95080
       H    10.96451    2.32869  -18.80471
       O    10.81357    1.47006  -19.20708
      H1    11.66112    1.14378  -19.56488
       H    15.54291   -0.11076  -11.96733
       O    15.21642    0.73317  -12.32056
      H1    14.77404    1.17943  -11.60734
       H    14.66251    7.63497  -18.27204
       O    14.11112    7.26880  -19.02641
      H1    14.35817    6.34841  -18.91481
       H    10.96317   11.48212  -16.63250
       O    11.81603   11.01635  -16.80360
      H1    11.66403   10.54958  -17.61396
       H    17.13547    6.59671  -16.40889
       O    16.57813    5.79900  -16.34034
      H1    16.44717    5.40688  -17.26034
       H    11.90106    2.52408  -12.51259
       O    11.66010    2.82193  -11.62779
      H1    10.71910    3.16026  -11.74704
       H    13.76314    1.79946   -9.43449
       O    14.62196    2.05973   -9.90868
      H1    14.38742    2.93176  -10.22171
       H     7.95171    7.06636  -18.71214
       O     8.25662    7.99862  -18.79323
      H1     9.23359    7.82738  -18.63307
       H    13.81521    6.33703   -8.67746
       O    13.53474    5.44175   -8.78177
      H1    13.70385    5.07543   -9.65366
       H    16.58764    5.99399  -11.59923
       O    16.93870    5.06351  -11.58534
      H1    17.18037    4.91971  -12.52968
       H    18.17571    1.34833  -17.86487
       O    17.33959    1.01556  -18.19722
      H1    17.00070    1.75801  -18.70191

