141
frame 3 | Written by MDAnalysis XYZWriter (release 2.4.3)
       H    17.71774   14.63698   -5.38727
       O    16.76357   14.64098   -5.30466
      H1    16.29973   14.46927   -6.15983
       H    18.17087   16.77950   -7.66659
       O    17.22810   16.81043   -7.53885
      H1    17.18058   16.47158   -6.64309
       H     7.51065   12.50305   -2.95376
       O     6.73292   12.65540   -3.47966
      H1     7.14505   12.60148   -4.34577
       H     7.51457   12.53326   -7.01348
       O     8.07820   12.34462   -6.27170
      H1     7.83901   11.51792   -5.86736
       H    10.24362   18.47396    1.51217
       O    11.10460   18.60245    1.93948
      H1    10.91884   19.26303    2.62470
       H    12.92317   15.98018   -8.76429
       O    13.36553   15.68466   -9.54996
      H1    12.98151   15.92360  -10.39453
       H    13.70585   17.83536   -1.69105
       O    13.77171   18.75851   -2.09152
      H1    13.50177   18.64231   -2.98643
       H    11.40333   16.74015   -6.54796
       O    12.35120   16.47320   -6.72972
      H1    12.34335   15.49222   -6.66356
       H    15.63341   17.81684   -0.33706
       O    16.37510   18.41154   -0.48464
      H1    16.43940   18.41890   -1.45762
       H     9.39929   14.86571   -8.10323
       O     9.09983   15.74910   -8.09436
      H1     9.54911   16.29953   -8.77152
       H     5.15036   15.31361   -3.10547
       O     5.40031   16.12796   -2.56635
      H1     5.81365   16.68633   -3.26623
       H    10.34749   18.54519   -1.70620
       O    10.76823   19.10116   -2.41590
      H1    11.68383   19.03409   -2.24419
       H     6.03854   16.11007   -8.02520
       O     6.45552   15.76452   -8.80278
      H1     7.36096   15.60950   -8.45517
       H     2.99082   17.14981   -1.18712
       O     2.89711   17.11522   -2.17494
      H1     3.76628   16.69294   -2.46499
       H     4.24782   17.48341   -6.49992
       O     4.66422   16.93271   -7.15371
      H1     4.14020   16.02637   -7.06363
       H     7.61078   14.76542   -1.25679
       O     8.56134   14.54869   -1.07187
      H1     8.99040   15.25362   -0.58097
       H    12.84271   19.88418  -10.56045
       O    13.24032   19.29180  -11.22489
      H1    12.93296   19.49656  -12.12647
       H     6.13104   17.11500  -10.01894
       O     6.48254   17.83138  -10.61826
      H1     5.66720   18.29255  -10.82402
       H     8.24077   18.82257   -7.25014
       O     8.31935   18.01810   -6.70061
      H1     8.57007   17.20449   -7.15867
       H     6.08994   18.40218   -2.05765
       O     5.87866   19.28658   -1.64454
      H1     4.95959   19.34764   -2.06662
       H    10.68507   11.27542   -8.17073
       O    10.65636   10.37409   -8.53756
      H1     9.79910    9.97046   -8.35566
       H     9.63298   12.68384   -6.95703
       O    10.26316   13.00912   -7.60032
      H1    11.06787   13.26985   -7.06489
       H    14.56003   15.75825    0.11325
       O    14.42289   16.27222   -0.68757
      H1    13.53668   16.06440   -0.96718
       H    16.08986   12.72962   -1.81082
       O    15.33800   12.79420   -2.40933
      H1    15.16076   13.73372   -2.52302
       H    15.41308   15.51422   -9.72515
       O    16.25085   15.12107   -9.68073
      H1    16.55849   15.45254   -8.82164
       H     3.82122   13.80258   -4.09180
       O     4.63950   14.14755   -4.36950
      H1     5.35902   13.58308   -3.96019
       H    11.59306   15.35823   -2.18668
       O    11.81296   16.01960   -1.52502
      H1    11.23049   15.93336   -0.75288
       H    10.53897   15.35297   -4.06244
       O    11.16566   14.65772   -3.68715
      H1    10.55078   13.95740   -3.49809
       H    10.25375   12.16742   -2.60881
       O     9.45451   12.64700   -2.73709
      H1     9.47608   13.38515   -2.13820
       H     3.90038   19.29101   -5.07903
       O     3.61687   18.36026   -4.97542
      H1     2.78657   18.32811   -5.44588
       H     6.35290   19.45435    0.22382
       O     6.43618   19.03236    1.08877
      H1     7.03065   19.56600    1.63969
       H    15.02674   12.56910   -6.06758
       O    14.86037   13.30278   -6.66457
      H1    14.99571   12.94893   -7.54612
       H     5.49238   18.08989   -5.02236
       O     6.36547   17.82422   -4.63571
      H1     6.91533   17.62517   -5.40321
       H     8.12782   18.06791    0.02846
       O     8.79958   18.70931   -0.26961
      H1     8.20174   19.43894   -0.59466
       H    13.05458   19.42771   -5.34737
       O    13.70941   18.73974   -5.20484
      H1    13.39569   17.85852   -5.45527
       H    11.47034   17.82307  -10.06469
       O    10.62474   17.59734   -9.63028
      H1    10.07780   18.29213  -10.04570
       H     3.88171   14.19383   -6.16168
       O     3.64396   14.28137   -7.06820
      H1     4.38742   13.86839   -7.55197
       H    10.40189   18.05381   -4.04139
       O    10.22877   17.59037   -4.85243
      H1     9.49908   18.00460   -5.41232
       H     5.69450   12.88948   -8.78808
       O     5.68698   12.66544   -7.81320
      H1     5.12814   11.89175   -7.77534
       H    12.51120   12.87387   -0.85973
       O    12.71712   12.44966   -1.69470
      H1    13.71671   12.41821   -1.76412
       H     7.97069   12.62248    1.34880
       O     7.67014   12.41635    0.46620
      H1     8.05370   13.22998   -0.02311
       H     9.17043   19.90304  -12.62329
       O     8.77474   19.76783  -11.71794
      H1     8.21960   19.00180  -11.83623
       H    10.43935   16.05197    1.81587
       O     9.69934   15.82230    1.21176
      H1     9.41369   14.96348    1.58810
       H    16.80387   17.62502   -3.45813
       O    17.68013   18.06144   -3.36469
      H1    17.96209   18.48977   -4.19313
       H    15.92767   19.56805   -7.26570
       O    15.90847   19.86266   -6.38977
      H1    15.17145   19.36437   -5.86971
       H    14.93365   16.27115   -4.28724
       O    15.64984   16.37350   -3.68644
      H1    16.35464   15.77464   -4.03866
       H    13.35055   13.63565   -6.22819
       O    12.40880   13.79865   -6.00406
      H1    12.35014   13.79128   -5.06125

