141
frame 0 | Written by MDAnalysis XYZWriter (release 2.4.3)
       H   -15.18382   12.21431    2.03245
       O   -16.14373   12.48009    1.90134
      H1   -16.04709   13.18157    1.27351
       H   -10.43805   10.94596    1.83033
       O   -11.09235   10.81828    2.55329
      H1   -11.86747   11.20695    2.14410
       H   -15.62524    7.98817   11.31917
       O   -15.55898    7.56512   12.15701
      H1   -16.34479    7.13366   12.33320
       H   -19.29496    4.31055    9.59294
       O   -19.35954    4.74215   10.44178
      H1   -18.88895    4.08561   10.95622
       H   -16.10579    6.04710    7.82897
       O   -15.38170    5.36409    7.95221
      H1   -14.84145    5.47625    8.77157
       H   -18.66085   12.46746    4.54428
       O   -18.68849   12.00830    5.39420
      H1   -18.96429   12.62424    6.07469
       H   -11.76469    8.33872    9.81755
       O   -11.22224    8.74535   10.48871
      H1   -11.70375    8.47562   11.32651
       H   -16.87246    3.42592    7.56247
       O   -17.18463    2.62296    7.17078
      H1   -17.96190    2.35766    7.61878
       H   -11.70977   10.35120    9.82615
       O   -12.05047   11.18092    9.50916
      H1   -11.35532   11.81547    9.69325
       H   -12.02624    8.51108   13.51351
       O   -12.54992    8.55008   12.71025
      H1   -12.92139    7.65221   12.54179
       H   -18.80871    2.96951    3.55083
       O   -18.18971    3.27135    2.87230
      H1   -18.26946    2.79705    2.03678
       H   -13.87888    5.24303   11.37488
       O   -13.98749    4.72683   10.56929
      H1   -14.15779    3.87802   10.94098
       H   -13.64542   11.23461    8.96952
       O   -14.51755   10.99662    8.52547
      H1   -15.02229   11.83210    8.45226
       H   -15.31272    9.49333    9.11451
       O   -15.90403    8.77574    9.27010
      H1   -16.68660    9.33571    9.41358
       H   -10.32636    6.71665    4.70982
       O    -9.47004    6.24998    4.72459
      H1    -9.26965    6.28185    5.68640
       H   -12.15996    4.38331    7.89592
       O   -11.89091    4.93731    8.60470
      H1   -12.52580    4.86308    9.32366
       H   -15.81512    2.14428    4.65018
       O   -16.12531    1.39361    5.10707
      H1   -16.55605    1.71294    5.92405
       H   -20.20588    7.14016    3.54040
       O   -19.59528    7.49163    4.22927
      H1   -18.74139    7.49612    3.67047
       H   -12.76145    7.83666    7.35806
       O   -12.14618    7.70825    8.07969
      H1   -12.12732    6.71149    8.17834
       H   -13.51557   12.44088    0.83240
       O   -13.38910   11.74709    1.47388
      H1   -13.69306   11.00792    1.01546
       H    -9.61844    7.79999    9.97889
       O    -8.91375    7.13067   10.00145
      H1    -8.07915    7.64528   10.18151
       H   -12.23704    7.61502    4.11316
       O   -12.64553    6.68733    3.94157
      H1   -13.14190    6.58061    4.76639
       H   -18.00502    6.83423    1.78631
       O   -17.57091    7.56176    2.19651
      H1   -16.65334    7.29610    2.08619
       H   -12.98116    4.11427    1.04808
       O   -13.85388    3.75924    0.87304
      H1   -13.79399    2.81200    0.89522
       H   -13.29190    9.35511    0.22067
       O   -13.67718    9.87131   -0.47990
      H1   -14.54434    9.50428   -0.42190
       H   -11.50966    8.84999    1.82068
       O   -12.20106    8.31723    1.38658
      H1   -11.75694    7.96526    0.65106
       H    -8.15279    5.07104    7.13192
       O    -8.19505    6.03173    7.33355
      H1    -8.75900    6.08323    8.13670
       H   -17.42165   10.79320    1.69620
       O   -18.00571   10.13398    1.30017
      H1   -17.89162    9.28126    1.73224
       H   -10.90440   11.94680    4.11518
       O   -10.62171   12.60050    4.77106
      H1   -10.17008   12.01944    5.36902
       H   -11.63082    4.97902    2.65424
       O   -11.46612    4.22371    2.06321
      H1   -11.78450    3.44049    2.56522
       H    -7.57024    9.01715    4.16294
       O    -8.36725    8.75506    3.62892
      H1    -8.53105    7.85717    4.04515
       H   -16.35111    3.64554    3.25648
       O   -15.39016    3.62168    3.54866
      H1   -14.89752    3.71295    2.72938
       H   -16.78508    7.96132    8.10337
       O   -17.10990    7.32195    7.41889
      H1   -18.03832    7.55929    7.37189
       H   -13.18912    1.83733    7.26112
       O   -12.55406    2.38264    6.81482
      H1   -13.15676    3.05075    6.42476
       H    -9.45975    3.10088   10.17138
       O    -9.96840    2.78042    9.39632
      H1   -10.53955    3.47077    9.09737
       H   -15.49922   12.13890    5.60422
       O   -16.15615   12.80273    5.68361
      H1   -17.04630   12.43550    5.43971
       H   -13.80135    6.93370    2.27753
       O   -14.66027    6.94546    1.88112
      H1   -14.55207    6.58585    1.03236
       H   -14.69220    4.56276    6.48987
       O   -14.10322    4.38917    5.71588
      H1   -14.70049    4.21367    4.96816
       H    -9.02784    4.66238    3.50888
       O    -8.51821    3.94158    3.14617
      H1    -9.09896    3.15618    3.20331
       H   -12.27822    9.65176    5.09504
       O   -11.51694    9.05315    4.89906
      H1   -11.11519    9.33459    4.07030
       H   -12.92296   11.76111    5.91013
       O   -13.64081   11.08110    6.01037
      H1   -13.97159   10.98399    6.90820
       H   -10.22202   10.72106    7.43155
       O    -9.78311   10.46723    6.60242
      H1   -10.34567    9.74372    6.31318
       H    -6.64856    9.99414    6.18924
       O    -7.16496   10.63537    6.77305
      H1    -8.05037   10.31928    6.71187
       H   -19.04631    8.98350    9.13909
       O   -18.56811    9.45054    9.83828
      H1   -18.70907    8.87188   10.61805
       H   -14.61637    6.86672    6.68200
       O   -14.17760    7.64247    6.33466
      H1   -14.90931    8.21456    6.23586
       H   -12.80100   14.82387    7.24446
       O   -12.47368   14.21124    6.60013
      H1   -11.69661   14.62628    6.22739
       H   -16.57424   13.72284    8.92721
       O   -15.75352   13.54349    8.39826
      H1   -16.06191   13.34898    7.46490

