141
frame 5 | Written by MDAnalysis XYZWriter (release 2.4.3)
       H     9.16579    5.46414  -10.31527
       O     9.86412    5.56120   -9.68342
      H1     9.50684    5.34421   -8.83395
       H     8.20175    8.24376  -11.96654
       O     9.18162    8.39167  -11.68247
      H1     9.30889    8.72602  -10.78920
       H    16.32529    9.53190   -6.63553
       O    15.85490   10.24099   -7.11138
      H1    15.20391   10.58757   -6.49094
       H    18.72771    5.88417   -9.87135
       O    19.03854    6.75399   -9.67669
      H1    18.96123    7.20955  -10.58894
       H    12.34157    5.67531   -7.02482
       O    12.04862    4.79823   -6.74369
      H1    12.03195    4.88217   -5.79705
       H    12.97987   12.01289   -4.77773
       O    13.35867   12.70969   -4.23171
      H1    12.73803   13.15851   -3.62752
       H    14.00003   11.53301  -11.63948
       O    14.70712   12.00512  -12.14846
      H1    14.39433   12.95268  -12.14381
       H    15.07286   10.04108   -8.66326
       O    14.98889    9.79834   -9.59650
      H1    14.13086   10.17154   -9.89677
       H    15.11593   13.74576   -9.19344
       O    15.03357   13.62225   -8.27734
      H1    15.91901   13.38249   -7.95001
       H     8.66829   10.50265   -6.38943
       O     8.38719   11.34531   -5.98532
      H1     7.45442   11.21177   -5.84214
       H    16.45510   11.11752   -3.90003
       O    15.72201   10.54936   -4.21917
      H1    14.94038   10.60515   -3.63050
       H    14.49803    3.61939   -5.40559
       O    14.50867    3.90127   -4.47157
      H1    13.83579    4.60226   -4.47532
       H    11.01569    7.58792   -2.52072
       O    11.06513    7.57249   -1.56318
      H1    10.32885    6.94863   -1.33380
       H    12.34453    4.45312  -12.74644
       O    12.68203    4.56638  -11.87562
      H1    12.36846    5.40115  -11.59393
       H    19.19182   11.32061   -8.15023
       O    19.73409   10.50182   -8.27890
      H1    19.20349   10.14948   -9.01924
       H     9.54921   10.56734   -3.11148
       O     8.61807   10.51649   -3.46578
      H1     8.66878   11.06153   -4.24044
       H    16.14971    6.80685   -5.32494
       O    15.65399    6.55058   -4.54873
      H1    15.48209    5.60241   -4.43905
       H    11.74426   10.54729  -10.43300
       O    12.34012   11.32810  -10.46479
      H1    12.27920   11.68823   -9.52825
       H    13.65946    8.69443  -12.52926
       O    12.69500    8.74831  -12.46692
      H1    12.46645    8.05697  -11.82612
       H    17.98611   12.79879   -6.42469
       O    17.54520   12.45400   -7.16312
      H1    17.08328   11.65177   -6.93243
       H    11.14186   10.88584   -1.20526
       O    11.10520   10.19853   -1.88759
      H1    11.01465    9.33968   -1.41952
       H     9.64338    8.66808   -8.36760
       O    10.09753    9.03217   -9.16312
      H1    10.38470    8.16981   -9.58804
       H    12.72027   12.08004   -7.45278
       O    11.95621   12.01784   -8.05115
      H1    11.58340   12.90062   -8.01792
       H    13.77116    2.17377   -4.54998
       O    13.11949    1.47375   -4.88464
      H1    12.55826    1.40801   -4.07905
       H    17.54219    5.44727   -2.50589
       O    17.99537    6.28062   -2.33864
      H1    17.72651    6.72643   -3.13657
       H     9.04689    8.13346   -5.62933
       O     8.73954    8.48802   -6.48583
      H1     7.79055    8.56928   -6.32176
       H    15.48973    8.03876  -11.51496
       O    15.40818    7.88472  -12.45607
      H1    16.13597    8.37058  -12.89511
       H    11.84607    6.06038   -3.30354
       O    12.27534    5.81742   -4.12300
      H1    12.58855    6.63387   -4.52140
       H    16.33986    3.67601   -4.11046
       O    17.14820    3.77833   -3.65801
      H1    17.89800    3.68435   -4.29188
       H     9.00522    5.50287   -6.38563
       O     9.38491    4.92083   -7.04982
      H1    10.31067    4.77868   -6.83023
       H    11.36970    6.27432   -9.85035
       O    12.12641    6.85646  -10.00359
      H1    12.68455    7.09173   -9.23491
       H    17.12103    9.42556  -10.13551
       O    18.01547    9.68921  -10.33319
      H1    17.87352   10.38473  -10.94983
       H    14.44272   13.94728   -5.29399
       O    14.88549   14.65240   -5.78076
      H1    15.03494   14.29566   -6.68422
       H    16.94607    7.25879   -7.38671
       O    17.13230    7.71364   -6.56695
      H1    18.07811    7.72135   -6.50772
       H    12.25764   10.51912   -6.31363
       O    13.12789   10.78211   -6.00927
      H1    13.53055   10.08650   -5.48955
       H    11.98661    1.51020   -6.45326
       O    11.52376    1.52210   -7.31352
      H1    12.21773    1.92644   -7.86107
       H    18.47099    9.38346   -3.32406
       O    17.95761    8.86260   -3.99846
      H1    17.16812    9.37865   -4.08786
       H    14.33183    3.75601   -7.63397
       O    15.01661    3.54440   -7.08380
      H1    15.13556    2.59733   -7.24572
       H    16.73609    3.70948   -7.89112
       O    17.63646    3.45758   -7.89718
      H1    17.79461    3.46613   -8.88120
       H    15.48357    7.65540   -0.60100
       O    14.64308    7.90207   -1.01970
      H1    14.15595    7.05950   -1.15902
       H    12.80037   10.16178   -2.28790
       O    13.77836   10.13334   -2.34873
      H1    14.06374    9.30757   -1.94778
       H    15.47719    5.62153  -11.96741
       O    15.36444    5.02985  -11.16558
      H1    14.36390    4.92234  -11.10224
       H    14.30173    7.71588   -4.59588
       O    13.57026    8.36382   -4.73274
      H1    13.68439    8.99475   -3.97282
       H    12.12897    3.15202   -9.40115
       O    12.98295    2.67941   -9.20255
      H1    12.96941    2.04633   -9.93612
       H    13.55235    7.90099   -7.38914
       O    13.56400    6.97804   -7.57842
      H1    14.50901    6.72255   -7.53302
       H    17.23237    6.69833   -9.29667
       O    16.30339    6.64735   -9.02617
      H1    15.88905    6.20010   -9.75820
       H     9.20240    6.86327   -3.96434
       O     9.64849    7.73307   -4.09267
      H1     9.12194    8.29221   -3.54763

