141
frame 7 | Written by MDAnalysis XYZWriter (release 2.4.3)
       H    -6.15090  -16.67104   10.08300
       O    -5.80917  -16.23383    9.31791
      H1    -5.25420  -16.98861    8.97176
       H   -16.56867  -18.52196   16.55897
       O   -16.44272  -18.07655   15.73116
      H1   -16.26333  -18.82821   15.08671
       H   -10.76795  -13.05955   13.17769
       O   -11.00359  -13.85101   12.66096
      H1   -11.95049  -13.95347   12.67156
       H   -11.26876  -10.06051   17.01102
       O   -12.04792  -10.29937   17.52186
      H1   -12.45356   -9.41092   17.68354
       H    -5.72159  -16.54798   14.40324
       O    -5.79428  -16.18126   13.53391
      H1    -4.94023  -16.33257   13.06159
       H    -5.98425  -16.27773   18.06161
       O    -5.56398  -15.91184   17.28104
      H1    -6.11305  -15.13919   17.06425
       H   -14.24693  -10.03257   15.21200
       O   -13.95100  -10.83502   15.63540
      H1   -13.25366  -10.55837   16.32874
       H   -12.05590  -14.84062   19.86371
       O   -11.68450  -14.84619   18.99336
      H1   -10.93533  -14.27536   19.14771
       H   -10.03154   -8.52186   15.77612
       O    -9.56408   -9.30367   15.68010
      H1    -9.57811   -9.49139   14.77347
       H   -15.19838  -18.63489   11.80269
       O   -15.61304  -17.92772   12.34124
      H1   -14.91493  -17.46217   12.84294
       H    -7.89012  -13.27423   16.14888
       O    -7.00337  -13.71740   16.30673
      H1    -6.37237  -13.83663   15.55158
       H   -14.85571  -12.11835   15.83794
       O   -15.29774  -13.00524   15.93213
      H1   -14.62642  -13.66136   16.02327
       H    -8.73795  -12.50606   12.07228
       O    -8.25315  -12.42751   12.92601
      H1    -7.43935  -11.85023   12.79320
       H   -13.17932  -19.90431   19.43805
       O   -13.75968  -19.28460   18.90129
      H1   -13.27546  -19.02487   18.06351
       H   -11.46502  -10.37778   10.94770
       O   -10.54635  -10.60921   10.92113
      H1   -10.57210  -11.39544   10.32080
       H    -6.56726  -19.27571   14.95117
       O    -7.37904  -18.71998   15.02553
      H1    -8.10903  -19.33622   15.08775
       H    -5.88079  -12.78917   13.68013
       O    -5.41916  -13.53211   14.20573
      H1    -5.74003  -14.38855   13.85945
       H    -3.28087  -14.11691   16.47552
       O    -3.06270  -15.08094   16.48359
      H1    -3.85739  -15.48678   16.92467
       H   -11.20612  -14.56424    7.58514
       O   -10.52263  -15.02339    8.05624
      H1   -11.02421  -15.64824    8.59383
       H   -11.74957  -10.98821   13.53486
       O   -10.78813  -11.23173   13.60610
      H1   -10.41221  -11.29408   12.69580
       H   -11.39484  -15.97323   16.05469
       O   -12.21131  -16.01518   16.54187
      H1   -12.07989  -15.46665   17.31208
       H    -4.85734  -10.75354   16.60888
       O    -4.67594  -10.35244   15.75690
      H1    -3.82536  -10.68193   15.45080
       H   -14.94161  -12.30195   12.69588
       O   -15.27981  -11.38584   12.72539
      H1   -16.22126  -11.54998   12.62211
       H    -4.13705  -15.68190   10.43110
       O    -3.71127  -15.71862   11.24478
      H1    -2.88380  -16.22925   11.20411
       H   -12.24152  -16.77712   12.34239
       O   -12.63982  -16.81442   13.21657
      H1   -12.04150  -16.23456   13.76766
       H    -7.92545  -15.66677   16.51598
       O    -8.50075  -16.36720   16.35130
      H1    -8.02264  -17.09695   15.88189
       H    -3.98018  -12.29301   10.53288
       O    -4.49710  -12.52189   11.33125
      H1    -4.80753  -13.42200   11.13985
       H   -14.85063  -14.40967   12.29014
       O   -14.28372  -13.84815   12.83966
      H1   -14.47496  -14.13637   13.75603
       H    -8.55726  -17.84531   10.69153
       O    -9.28188  -18.28934   10.26278
      H1    -8.96955  -18.49654    9.34160
       H    -5.10054  -19.37402   16.65683
       O    -5.50163  -19.58187   17.53742
      H1    -4.77874  -19.77697   18.14826
       H    -4.02325  -18.82348   14.77692
       O    -4.80214  -19.35793   14.85633
      H1    -4.48567  -20.26282   14.64147
       H    -5.33573  -11.46129   12.34519
       O    -5.95648  -10.86181   12.86267
      H1    -5.50757  -10.75748   13.70016
       H    -9.57200  -12.16790   15.24130
       O    -9.51532  -12.40972   16.16196
      H1   -10.32263  -12.95673   16.38513
       H   -10.08607  -14.89903   14.06094
       O   -10.32672  -15.64247   14.66785
      H1    -9.51566  -15.87650   15.22818
       H    -6.26636   -9.44189   16.25828
       O    -7.00007   -8.88559   16.57425
      H1    -7.82467   -9.28135   16.27928
       H    -9.92666  -17.46799   19.37924
       O   -10.38379  -17.74952   18.58780
      H1   -11.10572  -17.12128   18.53137
       H   -10.10421  -13.74251    9.26150
       O    -9.95741  -13.17277    9.98639
      H1   -10.30730  -13.65648   10.76560
       H    -6.74118  -17.26478   12.24024
       O    -6.97438  -17.80044   11.42871
      H1    -7.26277  -18.59642   11.83845
       H   -14.33693  -17.97699   16.24440
       O   -13.43530  -18.33204   16.28745
      H1   -12.92452  -17.44295   16.37873
       H    -8.44138  -14.78622    8.12861
       O    -7.54675  -14.74558    7.80540
      H1    -7.03543  -15.33926    8.35040
       H    -6.16240  -12.09203   18.82280
       O    -6.05240  -11.73992   17.88854
      H1    -6.28894  -12.47995   17.29184
       H    -6.87664  -18.47953   18.23087
       O    -7.21429  -17.72867   18.75108
      H1    -8.05113  -17.48481   18.32298
       H   -10.88414  -17.33595   10.11219
       O   -11.62208  -16.74321   10.13593
      H1   -12.27452  -17.17154    9.54082
       H    -3.19678  -16.38199   15.22870
       O    -3.20574  -17.00846   14.48060
      H1    -2.29442  -17.37895   14.50168
       H   -12.30574  -19.72528   14.71433
       O   -12.23423  -19.69276   13.71218
      H1   -12.08935  -18.74259   13.54669
       H    -9.09682  -11.00555   17.69576
       O    -8.71943  -10.89884   18.55428
      H1    -7.81677  -11.04672   18.22771
       H   -16.82479  -14.79794   14.34354
       O   -16.13262  -15.48787   14.38169
      H1   -16.43520  -16.27435   14.90957

