141
frame 7 | Written by MDAnalysis XYZWriter (release 2.4.3)
       H    -3.86500    2.90800   -1.84552
       O    -3.54868    2.57122   -2.69609
      H1    -4.35037    2.53127   -3.27734
       H    -5.91084    5.63883   -7.47789
       O    -5.51172    4.89236   -7.03758
      H1    -6.21234    4.55405   -6.46941
       H    -7.57280    6.97348   -7.88672
       O    -7.87659    6.72655   -7.03836
      H1    -8.72918    6.28555   -7.07210
       H    -1.64264    4.31515    0.48514
       O    -1.08618    3.75755   -0.06478
      H1    -1.04663    2.92021    0.36711
       H    -6.50037    3.23364   -4.58422
       O    -6.21397    2.94790   -3.67505
      H1    -6.71341    2.08824   -3.48128
       H    -7.81886    9.72248   -6.26537
       O    -7.11967    9.15338   -5.83669
      H1    -7.53452    8.27373   -6.01980
       H    -5.22711   -0.84028   -6.85050
       O    -5.48891   -0.33012   -6.09946
      H1    -4.67018    0.04088   -5.68932
       H    -0.48519    8.98383   -4.88695
       O    -0.76746    8.72641   -5.78435
      H1    -0.62553    9.44525   -6.38807
       H     0.32501    4.39110   -6.11791
       O    -0.01182    4.24707   -7.00220
      H1     0.76688    3.80727   -7.49505
       H    -0.12700    2.56763   -5.32107
       O     0.41569    1.77578   -5.54054
      H1    -0.19203    1.32448   -6.18918
       H    -2.30555    8.36623   -0.49352
       O    -3.17361    8.03655   -0.13439
      H1    -3.59480    7.44110   -0.78758
       H    -7.53685    2.62944   -6.33396
       O    -7.59676    3.55944   -5.97645
      H1    -8.45094    3.67255   -5.56607
       H    -4.27573    7.37736   -4.90206
       O    -4.49252    8.23645   -4.56116
      H1    -5.45368    8.38474   -4.78590
       H    -4.08391    9.48425   -3.29966
       O    -3.77052   10.09713   -2.63047
      H1    -4.37152   10.04602   -1.88250
       H    -3.44760    7.65181  -10.75568
       O    -4.03827    6.98291  -11.07944
      H1    -4.33451    7.27676  -11.92729
       H    -4.52666    6.36147   -2.82241
       O    -4.78492    6.29213   -1.92762
      H1    -4.65038    5.35564   -1.69269
       H    -2.39967    6.73206    0.90637
       O    -2.58352    5.84789    1.21669
      H1    -1.96743    5.68522    1.96052
       H    -6.66969    1.79729   -8.12037
       O    -7.24362    1.21257   -7.65499
      H1    -6.63418    0.79558   -7.05374
       H    -0.91908    6.57022   -1.67935
       O    -0.40301    5.90772   -2.14343
      H1    -0.72267    5.10429   -1.71337
       H     1.05171    3.90521   -9.84471
       O     1.32989    3.23110   -9.20309
      H1     0.86386    2.46094   -9.43296
       H    -7.23905    3.58710   -9.15895
       O    -6.30115    3.36487   -8.99964
      H1    -6.10529    3.82968   -8.16087
       H    -4.42512    2.02097    0.55481
       O    -4.22293    1.51670    1.41178
      H1    -4.74816    0.72624    1.19225
       H    -0.66890    6.01104   -7.94398
       O    -0.63606    6.96792   -8.09336
      H1    -0.83969    7.32780   -7.20753
       H     2.23744    3.83675   -3.30709
       O     2.20613    2.93639   -2.97588
      H1     2.54778    3.00227   -2.07947
       H    -2.48825   -0.22281   -5.41790
       O    -2.76512    0.67685   -5.14215
      H1    -1.99215    1.19677   -5.32786
       H    -2.76123   -0.75666   -2.59999
       O    -1.78293   -0.72727   -2.48240
      H1    -1.51260    0.21236   -2.56816
       H    -4.20268    5.09787   -5.98891
       O    -3.58840    5.45917   -5.29155
      H1    -2.85497    4.83998   -5.11585
       H    -8.25884    0.68713   -2.13800
       O    -7.35864    0.67340   -2.54870
      H1    -7.32450   -0.21082   -2.94758
       H    -1.43267    8.05757   -9.05754
       O    -1.99523    8.64148   -9.67881
      H1    -2.71245    9.04745   -9.14766
       H    -3.19897    4.00561  -11.36981
       O    -2.56103    4.66878  -11.05422
      H1    -3.01961    5.44159  -10.74944
       H    -4.30953   10.15063   -7.46546
       O    -4.04533    9.16417   -7.35719
      H1    -3.70381    9.07434   -6.48172
       H    -0.78396    2.51009   -1.31941
       O    -0.60694    1.86664   -2.00424
      H1     0.18764    2.19321   -2.51642
       H     3.85819    2.18006   -5.44216
       O     3.24582    2.48374   -6.12074
      H1     2.37667    2.23330   -5.73307
       H     2.50887    6.41774   -4.18757
       O     2.27115    5.82846   -3.47788
      H1     1.37866    6.16231   -3.25720
       H    -0.34125    9.15654   -0.19113
       O    -0.60418    8.47771   -0.81846
      H1    -0.47179    8.97130   -1.65948
       H    -3.63129    1.96004  -10.62519
       O    -3.62504    2.21832  -11.55539
      H1    -4.58110    2.27691  -11.56495
       H    -1.43224    0.04547   -9.19739
       O    -1.12725   -0.31682  -10.03238
      H1    -1.15101   -1.23301   -9.90318
       H    -7.09211    4.79601   -1.41686
       O    -7.46583    4.63933   -2.30012
      H1    -6.99568    3.92371   -2.75405
       H    -5.48470    7.33405   -9.69747
       O    -5.95947    7.71658   -8.93379
      H1    -5.25651    8.21493   -8.43036
       H    -5.49078    4.16528    0.11030
       O    -4.64923    3.85408   -0.25719
      H1    -4.07874    3.94838    0.49034
       H    -1.57691    3.82198   -8.32145
       O    -1.53398    3.22937   -9.08066
      H1    -1.68411    3.80828   -9.83448
       H    -7.84366    7.44670   -2.22302
       O    -7.12911    8.00466   -1.85912
      H1    -6.42925    7.30271   -1.91516
       H     2.89523    6.24752   -7.85000
       O     2.43735    7.13137   -7.79860
      H1     1.53234    6.89949   -8.02172
       H    -2.03972    3.50286   -4.01583
       O    -1.47231    4.24149   -4.34585
      H1    -1.52436    5.00726   -3.74003
       H     0.86407    9.60017   -3.18601
       O    -0.07788    9.65632   -3.34312
      H1    -0.30224   10.46957   -2.78696
       H    -5.49319    0.17268   -2.07125
       O    -4.50021   -0.00419   -1.96640
      H1    -3.99119    0.77551   -2.22823
       H    -2.50051    0.97584   -7.45461
       O    -1.50782    0.98352   -7.58456
      H1    -1.41859    1.74985   -8.14673

