141
frame 9 | Written by MDAnalysis XYZWriter (release 2.4.3)
       H   -14.18597   14.84087    4.07719
       O   -14.17493   14.99530    5.00265
      H1   -14.90602   15.51147    5.34181
       H   -11.82197   10.17043    3.04288
       O   -12.55755   10.71560    2.88803
      H1   -12.19480   11.60562    2.91824
       H   -16.11538   13.16360    5.19493
       O   -16.61075   13.49534    4.44970
      H1   -16.04347   13.07018    3.76354
       H   -13.96674   11.60415   12.08404
       O   -14.50112   10.89677   12.45547
      H1   -15.39844   11.07355   12.08614
       H   -13.25011   10.43496    6.66657
       O   -12.45193   10.45869    7.23711
      H1   -12.69201    9.98542    8.07176
       H    -6.68143   17.91969    4.15104
       O    -6.26656   17.06629    4.07976
      H1    -6.32764   16.80281    3.16672
       H    -8.39650   16.00074    8.48758
       O    -8.59340   15.60593    7.60947
      H1    -8.92506   16.36023    7.11218
       H   -10.24347   16.13486   12.80175
       O    -9.86999   15.34176   12.42985
      H1   -10.62054   14.71267   12.40036
       H    -6.24820   13.29830    8.01420
       O    -6.13880   14.22594    7.78211
      H1    -7.05352   14.60293    7.84224
       H   -13.05819   16.51398    9.43410
       O   -13.87175   16.86762    9.70206
      H1   -13.82508   16.93518   10.65531
       H   -13.44030   18.26414    3.58198
       O   -14.16272   18.69067    4.14790
      H1   -14.10349   18.37526    5.04376
       H   -17.31022   17.15500    9.86597
       O   -18.11695   17.70529    9.99560
      H1   -18.88264   17.31889    9.45610
       H   -11.10613    9.67529    6.36568
       O   -10.38074    9.27460    5.87198
      H1   -10.50672    9.43078    4.94344
       H    -8.94378   17.69685    4.92269
       O    -8.80410   18.47162    5.59016
      H1    -7.95161   18.33912    6.02043
       H    -8.90990   14.79269   13.86760
       O    -8.25151   14.14203   14.19493
      H1    -8.43813   13.42232   13.64715
       H   -12.81347   17.48656    1.82644
       O   -12.27547   17.64677    2.62620
      H1   -11.82636   16.82513    2.88342
       H    -8.71806   12.24034    3.25369
       O    -8.34338   11.50876    2.78822
      H1    -8.54069   11.60912    1.86063
       H   -13.21488   14.82229   12.69222
       O   -14.03105   15.29302   12.73489
      H1   -14.41230   15.17826   13.65517
       H   -15.63064   16.80617    6.63623
       O   -16.16486   15.98963    6.49781
      H1   -16.50566   16.18164    5.59084
       H    -9.78667   15.40457    4.02151
       O    -9.95646   16.33032    4.24748
      H1   -10.55656   16.22223    4.99240
       H   -16.69794   12.23103   11.07200
       O   -16.90649   11.67367   11.81174
      H1   -17.67799   12.10439   12.16283
       H   -14.26281   17.07945   12.64922
       O   -14.41969   18.00879   12.36148
      H1   -13.90919   18.59197   12.93884
       H   -11.88555   12.76386   13.11629
       O   -11.83279   13.32569   12.32052
      H1   -11.74777   12.75100   11.56556
       H    -8.23113   17.52523   15.18495
       O    -9.18085   17.40204   14.97463
      H1    -9.49645   17.86159   14.16672
       H   -11.99251   14.80321    8.39551
       O   -11.45651   15.55454    8.27389
      H1   -10.60043   15.27628    7.84215
       H   -10.57760   13.52759    4.27589
       O    -9.89932   13.57849    3.49507
      H1   -10.44092   13.89419    2.77227
       H   -12.35463   13.25390    5.96225
       O   -11.49033   13.58324    5.69059
      H1   -10.92424   13.16967    6.42003
       H   -18.11343   13.60270    9.86538
       O   -17.68859   13.12111    9.13293
      H1   -18.15287   13.47663    8.34220
       H   -14.17246   17.99561    8.00925
       O   -14.12380   18.20095    7.03418
      H1   -13.44157   17.57053    6.69516
       H    -4.19568   15.74348   10.14567
       O    -4.96592   16.20705   10.63047
      H1    -5.08255   17.06937   10.20321
       H   -10.11217   18.96443   12.17263
       O   -10.55211   18.30121   12.77089
      H1   -11.44140   18.69531   12.88868
       H   -14.96093   13.78426   11.56637
       O   -15.07933   13.49029   10.70435
      H1   -15.55433   14.22913   10.20201
       H   -15.87680   19.58567    9.66868
       O   -15.20371   19.74827   10.35643
      H1   -15.06394   18.91091   10.80338
       H   -14.47805   13.34248    5.82585
       O   -14.81691   12.67569    6.42625
      H1   -14.90169   11.90514    5.81316
       H   -15.11850    9.68587    5.00078
       O   -14.40287   10.34727    5.06923
      H1   -13.92869   10.35788    4.21728
       H   -16.58168   14.98679    8.68974
       O   -16.36931   15.62501    9.38610
      H1   -15.44018   15.85869    9.28304
       H   -11.91429   16.43262    6.89985
       O   -12.25428   16.69322    5.96979
      H1   -12.71392   15.89462    5.69940
       H    -5.33078   13.80314    9.58149
       O    -5.45577   13.08437   10.15879
      H1    -5.69745   12.33755    9.55688
       H    -5.70850   19.32077    9.79036
       O    -6.25547   18.51801    9.73293
      H1    -6.58954   18.41181    8.84595
       H   -18.02846   15.26793    6.78818
       O   -18.88812   14.87441    7.06055
      H1   -19.45958   15.69633    7.06098
       H    -7.04024   16.09348   10.53821
       O    -7.94348   16.00621   10.24135
      H1    -8.55724   15.88101   10.99805
       H    -9.11123   11.93283    7.87543
       O    -9.14744   12.02844    6.91068
      H1    -9.21518   11.13949    6.70650
       H    -5.04300   16.31211    6.05020
       O    -4.51637   15.98278    6.81001
      H1    -5.19024   15.37424    7.23315
       H    -9.27257   10.46218    9.90267
       O    -9.30544   11.37358    9.62530
      H1   -10.12808   11.79697    9.91308
       H    -6.81177   10.64386    8.26626
       O    -6.70692   11.57927    8.03939
      H1    -7.58258   11.76940    7.66301
       H   -12.47062   12.15561    9.50887
       O   -11.99593   11.68134   10.16339
      H1   -12.18844   10.72766   10.03091
       H   -13.82392   13.77034    9.52292
       O   -13.31698   13.74665    8.70452
      H1   -13.87651   13.35804    8.08341

