141
frame 1 | Written by MDAnalysis XYZWriter (release 2.4.3)
       H    -2.81093    3.28110   -3.57577
       O    -3.37920    2.71505   -3.00613
      H1    -3.62073    3.18489   -2.18911
       H    -1.04333    5.42671    0.43744
       O    -1.45442    4.55855    0.20139
      H1    -1.24241    4.15627    1.04858
       H     1.05207    4.57245    3.17103
       O     0.61963    5.40183    3.41471
      H1     0.99724    6.19804    3.03178
       H    -0.46788   -5.93637   -1.00938
       O     0.40554   -5.93705   -1.43434
      H1     0.23335   -6.72461   -2.00982
       H    -1.20446   -1.79097   -2.93330
       O    -1.40193   -1.15847   -3.66731
      H1    -1.09096   -1.52338   -4.48672
       H     0.64765   -4.86019   -2.98628
       O     0.23095   -4.19639   -3.60088
      H1     0.97305   -3.78374   -4.05130
       H    -4.72494    2.48155   -3.81935
       O    -5.42404    2.32932   -4.50620
      H1    -6.26889    2.74553   -4.16812
       H    -4.85749   -1.85709   -3.71987
       O    -4.24171   -2.54811   -4.01516
      H1    -3.44219   -2.00904   -3.92266
       H    -2.06710   -5.25242    0.97972
       O    -2.25083   -5.50444    0.00274
      H1    -1.79013   -4.77865   -0.44917
       H     1.91645    3.43247    1.29848
       O     2.41643    3.70420    0.48795
      H1     2.78444    2.88967    0.21098
       H     3.31214   -2.09059    4.43880
       O     2.55013   -1.54835    4.52486
      H1     2.94058   -0.62734    4.60050
       H    -4.58230    5.40169   -3.59822
       O    -4.92114    5.96023   -2.83914
      H1    -4.47993    5.52879   -2.10436
       H     2.25383   -2.05595   -0.00226
       O     2.29102   -2.82802   -0.63439
      H1     3.23413   -2.87096   -1.04475
       H    -0.01458   -2.82505   -0.82398
       O    -0.72913   -2.88785   -1.44850
      H1    -0.42425   -3.49051   -2.19684
       H    -3.40407    0.86381    4.11705
       O    -3.14235    1.74657    3.82714
      H1    -3.54964    1.87325    2.99072
       H     2.28832   -4.55806    2.35552
       O     1.75771   -4.62538    3.20661
      H1     0.87995   -4.22522    3.02586
       H    -0.73951    6.13291   -2.70027
       O    -1.00592    5.19128   -2.76233
      H1    -1.09744    4.94225   -1.82655
       H     4.23754    2.18907   -2.57284
       O     4.30137    1.21213   -2.71123
      H1     3.82786    0.91225   -1.85799
       H    -4.58688    2.94154    0.51363
       O    -4.60741    2.30220    1.23470
      H1    -4.88831    1.57136    0.72452
       H     0.56945    4.46480   -2.39356
       O     1.37481    3.93067   -2.15268
      H1     1.58090    3.87975   -1.21055
       H    -1.33645    0.85604   -4.44639
       O    -0.89883    1.58285   -4.92893
      H1     0.02619    1.40843   -4.88272
       H    -1.32057    0.16120   -0.25372
       O    -0.52618    0.46465    0.17417
      H1     0.08059    0.81030   -0.52572
       H    -7.67959    2.89232    2.53092
       O    -7.35065    2.21806    1.94050
      H1    -6.40485    2.33007    1.90329
       H     0.84438   -1.31569    4.34992
       O    -0.03121   -0.90206    4.38208
      H1    -0.54334   -1.24265    3.64529
       H    -4.79223    0.20034   -0.89312
       O    -5.25825   -0.00134   -0.08569
      H1    -6.07978   -0.43252   -0.46218
       H    -6.77443    0.93126   -1.76740
       O    -7.26314    1.77611   -1.67867
      H1    -7.43810    1.83736   -0.75953
       H     2.55181    0.27108   -4.54996
       O     1.71278    0.09579   -5.00239
      H1     1.63200   -0.86055   -5.15884
       H    -1.20605   -1.71827    5.55260
       O    -1.92808   -1.62184    6.23794
      H1    -1.59029   -0.98598    6.88596
       H     1.17294    2.10399   -2.39343
       O     1.05338    1.15919   -2.18543
      H1     1.12724    0.66701   -3.06060
       H    -5.66855    0.64096   -3.83530
       O    -5.64939   -0.22313   -3.40554
      H1    -6.37411   -0.72596   -3.82621
       H    -7.60265   -2.21882   -0.79693
       O    -7.62471   -1.53471   -0.11763
      H1    -7.84181   -1.90905    0.75327
       H    -4.57876   -1.43181    5.22148
       O    -3.83839   -1.02977    4.70379
      H1    -3.05137   -1.23520    5.26872
       H    -5.76890   -4.59270    2.03910
       O    -4.96090   -4.26669    2.43318
      H1    -4.88788   -3.38537    2.09778
       H    -4.12955   -5.55711   -0.57388
       O    -5.01591   -5.92114   -0.70642
      H1    -5.28725   -5.42350   -1.44053
       H     2.85897   -4.22408    0.34015
       O     3.21915   -4.73442    1.07542
      H1     4.03809   -4.31028    1.41597
       H    -2.36908   -1.35432    2.00911
       O    -1.39462   -1.28617    1.91751
      H1    -1.15398   -0.56976    1.38386
       H    -1.09746    2.00444    1.44980
       O    -1.24648    2.59522    2.17048
      H1    -1.78391    2.09766    2.78138
       H    -4.79579    4.69210   -0.02225
       O    -4.06603    4.34179   -0.57286
      H1    -3.24339    4.62924   -0.09724
       H    -4.46839    4.28444    5.13977
       O    -3.55532    4.05045    5.16494
      H1    -3.41667    3.20526    4.68733
       H     0.61744    2.37324    2.66832
       O     1.44537    2.79217    2.90053
      H1     2.06326    2.10649    3.17864
       H    -4.46715   -1.57107    2.68141
       O    -4.18363   -1.74768    1.68234
      H1    -4.73263   -1.18560    1.09949
       H     3.66665    1.30649    4.83663
       O     3.55540    1.11993    3.84409
      H1     4.48505    1.24470    3.58182
       H     4.10255    1.16814    0.36655
       O     3.28733    0.87585   -0.06677
      H1     2.98335    0.20336    0.52752
       H    -3.43614   -5.11767    2.24306
       O    -2.57608   -5.46572    2.53473
      H1    -2.67564   -6.45548    2.79548
       H    -1.70074    3.07139   -4.86429
       O    -2.05475    3.94885   -5.10640
      H1    -1.70383    4.51499   -4.42026
       H     1.86761   -1.25177    2.57159
       O     1.86316   -0.93588    1.63772
      H1     0.98055   -0.61591    1.46589
       H    -2.41883   -0.27129   -2.16806
       O    -2.76691    0.33208   -1.54156
      H1    -2.71951    1.27503   -1.88322

