141
frame 11 | Written by MDAnalysis XYZWriter (release 2.4.3)
       H   -11.36809   -0.60585  -10.21244
       O   -11.44970    0.23091   -9.72956
      H1   -11.74976    0.94997  -10.34226
       H    -5.00493   -3.49300   -5.23418
       O    -4.92809   -2.58746   -4.90477
      H1    -5.70343   -2.13353   -5.38132
       H    -8.74567   -0.48135   -9.22701
       O    -8.59529   -1.23679   -9.80990
      H1    -9.44927   -1.50338  -10.19590
       H   -12.99135   -6.09873  -10.85701
       O   -12.17521   -5.90609  -10.29025
      H1   -12.03026   -4.97496  -10.37601
       H   -13.75634   -3.42242   -4.82134
       O   -14.04454   -4.13484   -4.25263
      H1   -14.87412   -3.85892   -3.83513
       H   -11.68150   -9.18264   -6.32607
       O   -12.33334   -9.12341   -5.57656
      H1   -12.74454   -8.20556   -5.62879
       H   -15.69551   -4.02756   -8.39247
       O   -15.42861   -4.72931   -9.02145
      H1   -14.78771   -4.31199   -9.59308
       H    -6.63974   -6.85551   -9.12086
       O    -7.25168   -7.52140   -9.50258
      H1    -7.94565   -7.05335  -10.01087
       H    -9.10150   -6.99768   -4.56484
       O    -8.46381   -6.25020   -4.56535
      H1    -8.49064   -5.88022   -5.43354
       H   -13.74752   -7.79218   -8.32819
       O   -14.62455   -7.43246   -7.99495
      H1   -14.79151   -6.48544   -8.31660
       H    -8.94332   -5.14277   -7.38600
       O    -8.09935   -4.92919   -6.95793
      H1    -7.40779   -5.08685   -7.62491
       H    -5.61582   -9.56103  -11.60418
       O    -5.92079   -9.94129  -10.74430
      H1    -6.55041   -9.25382  -10.46674
       H    -5.77257    0.14764  -10.45889
       O    -6.01784   -0.76718  -10.43874
      H1    -6.95237   -0.73350  -10.20568
       H   -13.71648   -6.97277   -6.59149
       O   -13.03724   -6.65896   -5.93202
      H1   -13.57140   -6.07601   -5.33990
       H    -1.63728   -2.38288   -5.34979
       O    -2.05255   -3.29183   -5.25088
      H1    -3.01079   -3.16916   -5.26777
       H    -9.96663   -6.03415  -12.53943
       O    -9.74725   -6.23059  -11.61314
      H1   -10.68439   -6.12613  -11.26781
       H    -6.57608   -3.19181  -12.24510
       O    -5.73670   -2.78532  -12.54470
      H1    -5.55815   -2.07242  -11.91025
       H    -9.36746  -10.03830  -11.29358
       O    -9.79868   -9.22071  -11.04358
      H1    -9.34527   -8.43950  -11.44441
       H    -7.51675   -8.73608   -8.31509
       O    -7.51085   -9.40635   -7.57984
      H1    -7.05198   -8.94786   -6.86712
       H   -11.65451   -6.22679   -7.09090
       O   -11.04888   -5.77582   -7.65688
      H1   -11.43529   -5.88467   -8.52749
       H   -10.16386  -11.48103   -6.99498
       O    -9.66916  -12.27673   -6.78117
      H1   -10.39141  -12.98147   -6.86793
       H   -10.78851   -9.04041   -8.09664
       O   -10.23874   -9.46560   -7.45435
      H1    -9.35129   -9.48374   -7.75149
       H   -12.64679   -4.63919   -2.47758
       O   -12.19336   -5.27195   -1.86228
      H1   -11.71808   -4.73764   -1.26312
       H    -7.21638   -7.48868   -4.71465
       O    -6.58848   -8.17279   -4.97849
      H1    -7.15763   -8.95955   -4.82675
       H    -5.69831   -7.28441   -2.30825
       O    -5.66318   -8.06475   -1.71129
      H1    -5.00745   -7.76765   -1.02484
       H    -8.69713  -11.71242   -4.85053
       O    -8.25773  -10.98660   -4.38290
      H1    -7.72298  -11.36203   -3.65896
       H    -5.68462   -4.32071   -8.77141
       O    -5.91347   -5.29161   -8.60847
      H1    -5.41095   -5.54960   -7.83638
       H   -10.36856   -1.06024   -4.71157
       O    -9.70337   -0.77511   -5.31367
      H1    -9.67525   -1.48619   -5.96552
       H   -11.20823   -2.77031   -9.42002
       O   -11.00108   -2.92368  -10.32142
      H1   -11.86943   -2.73525  -10.70147
       H    -7.69587   -0.54172   -5.20840
       O    -6.75278   -0.54687   -5.14480
      H1    -6.53674   -0.51056   -4.21072
       H    -9.51481   -9.51145   -4.09867
       O    -9.94842   -8.65547   -4.13693
      H1   -10.81693   -8.76951   -4.56311
       H    -8.04402   -2.42875   -1.43993
       O    -7.89941   -1.69263   -0.88502
      H1    -7.97367   -1.90505    0.02701
       H    -4.20572   -7.02077  -10.52839
       O    -3.67819   -7.52477  -11.08441
      H1    -4.13326   -7.77022  -11.89122
       H    -8.54440   -3.16960   -7.16321
       O    -9.12547   -2.44301   -7.41875
      H1    -8.74328   -2.08970   -8.25817
       H    -4.98988   -5.55569   -5.21042
       O    -4.61298   -5.87466   -6.04470
      H1    -4.27169   -6.76603   -5.84613
       H    -9.11507   -3.30432  -12.19806
       O    -8.33363   -3.84732  -12.28285
      H1    -8.61407   -4.79239  -12.27797
       H   -12.00622   -7.90746   -9.36901
       O   -12.51046   -8.64377   -8.93309
      H1   -12.46881   -9.37758   -9.54709
       H   -11.66684   -0.29826   -3.32943
       O   -11.67857   -1.26324   -3.37459
      H1   -11.74288   -1.56492   -2.43595
       H    -4.73289   -1.58859   -9.60196
       O    -3.95848   -2.09147   -9.25947
      H1    -3.78572   -2.72884   -9.92815
       H    -8.44855   -4.70966   -2.70874
       O    -7.88267   -4.41041   -2.00612
      H1    -7.77509   -5.15824   -1.38951
       H    -4.06125   -8.42784   -9.41162
       O    -4.40926   -8.70862   -8.56884
      H1    -4.96072   -9.46319   -8.88333
       H    -6.87600  -11.03566   -7.98805
       O    -6.39218  -11.83200   -8.20286
      H1    -7.08229  -12.40214   -8.51301
       H    -9.74933    0.55209   -7.42101
       O    -8.91402    0.65727   -7.88345
      H1    -8.35325    1.27168   -7.33552
       H   -10.63228   -8.98504   -2.25806
       O   -11.14463   -9.37307   -1.55322
      H1   -11.82447   -9.93032   -2.03385
       H    -3.69929   -9.12585   -5.29243
       O    -3.30210   -8.41010   -5.83023
      H1    -3.79927   -8.64407   -6.67870
       H   -11.64389   -3.95067   -7.29606
       O   -11.65281   -3.04374   -7.56864
      H1   -10.73126   -2.78548   -7.63216
       H    -6.00452   -4.80947   -2.48662
       O    -5.13530   -5.09201   -2.80070
      H1    -4.48699   -4.35356   -2.65083

