141
frame 9 | Written by MDAnalysis XYZWriter (release 2.4.3)
       H    -9.57654   19.76010   -6.86814
       O    -9.36325   19.06326   -6.24295
      H1   -10.07724   19.12218   -5.59167
       H   -18.38992   12.07441   -8.18478
       O   -18.48802   11.14850   -8.61531
      H1   -19.34710   11.11852   -8.95552
       H   -12.99147   17.37468   -0.56443
       O   -13.46842   18.02458    0.02694
      H1   -12.94396   18.83880   -0.07668
       H   -11.82931   15.74685   -2.08546
       O   -12.28368   15.87717   -1.24216
      H1   -11.85642   15.40267   -0.53815
       H   -16.83727   12.21719   -4.31073
       O   -17.66282   12.63898   -4.08286
      H1   -18.30410   12.12845   -4.57170
       H   -14.68388   12.20490   -9.73596
       O   -14.96867   12.16388   -8.85003
      H1   -15.52223   12.95922   -8.70401
       H   -15.86720   15.84639  -12.35341
       O   -16.34735   16.70310  -12.28014
      H1   -16.16406   17.07814  -11.44757
       H   -19.07081   16.79008  -10.94329
       O   -19.52526   17.56815  -10.61520
      H1   -19.06559   17.76538   -9.74361
       H   -11.54572   19.95204   -4.37910
       O   -11.13048   19.10257   -4.38623
      H1   -11.77250   18.46436   -4.78352
       H   -17.78547   14.53499    3.53351
       O   -18.50635   15.04778    3.15458
      H1   -19.31137   14.90699    3.66831
       H   -13.16376   15.39611   -3.40652
       O   -14.01388   14.94127   -3.54459
      H1   -14.72595   15.53264   -3.25997
       H   -17.43634   18.49027    1.21132
       O   -17.26009   19.29436    1.64683
      H1   -18.02573   19.84275    1.70098
       H   -14.00313   14.19271   -5.05603
       O   -14.32495   13.76005   -5.88072
      H1   -13.74828   13.94016   -6.60824
       H   -12.81347   17.48656    1.82644
       O   -12.27547   17.64677    2.62620
      H1   -11.82636   16.82513    2.88342
       H   -11.27739   14.81733   -4.33530
       O   -11.16809   15.72294   -3.90111
      H1   -10.24765   15.96960   -4.14135
       H   -15.73960   17.43048   -2.63656
       O   -15.99332   16.56146   -2.97695
      H1   -16.42673   16.82796   -3.80693
       H   -19.12671   16.36346    1.52069
       O   -18.66338   16.88578    0.82396
      H1   -19.38829   17.39406    0.41937
       H   -16.62184   17.85078    3.87968
       O   -17.45034   17.51287    4.29173
      H1   -17.74906   16.91798    3.56198
       H   -16.85082   14.78838    0.01870
       O   -16.65800   14.23652    0.76039
      H1   -17.48506   14.19197    1.18632
       H   -16.37960   19.41335   -1.62233
       O   -15.48431   19.16846   -1.77289
      H1   -14.99956   18.89856   -1.01766
       H   -15.49637   13.29369    1.91692
       O   -15.09570   12.74863    2.58468
      H1   -14.74443   11.99669    2.12518
       H   -14.00115   13.62326   -2.22263
       O   -13.79232   12.87317   -1.65955
      H1   -14.53738   12.24999   -1.72089
       H   -10.43967   17.09541   -8.29334
       O   -10.98557   17.80966   -8.63752
      H1   -11.08551   18.36208   -7.89191
       H   -18.72251    9.84784   -6.25159
       O   -19.23960   10.37491   -5.58100
      H1   -19.46734    9.61904   -5.00853
       H   -16.82411   10.01316   -3.53733
       O   -16.87838    9.03488   -3.55741
      H1   -16.97803    8.82785   -4.49155
       H   -18.00902   14.32174   -8.58111
       O   -17.32658   13.77290   -8.06197
      H1   -17.20089   14.20329   -7.17379
       H   -14.26724   16.86206   -9.75162
       O   -14.37483   15.92323   -9.62919
      H1   -13.53647   15.66301   -9.96385
       H   -18.21276    8.42749   -7.35327
       O   -17.49367    8.48371   -6.71863
      H1   -16.80259    9.08716   -7.05998
       H   -11.58134   10.94092   -2.87914
       O   -12.22474   11.27409   -3.48478
      H1   -12.92039   11.82106   -3.07539
       H   -14.36349    9.98109    1.25499
       O   -14.40733   10.87030    0.87858
      H1   -15.27184   11.00272    0.47841
       H   -15.21813   16.91825    1.84126
       O   -14.68865   16.16224    2.10743
      H1   -14.90689   15.52781    1.42835
       H   -18.59897   13.69375   -1.56050
       O   -18.86200   12.72823   -1.34568
      H1   -18.71546   12.22670   -2.23274
       H   -13.36341   16.97836   -6.11329
       O   -12.41570   16.99692   -6.04607
      H1   -12.15825   16.37135   -5.35583
       H   -19.81808   14.16113   -9.83029
       O   -19.73993   14.60493   -8.98134
      H1   -19.47523   15.53906   -9.12885
       H   -18.45466   17.14266   -4.43555
       O   -17.62092   17.40514   -4.89024
      H1   -17.24012   16.60027   -5.18388
       H   -12.87671   15.42228   -8.23311
       O   -12.24921   14.95638   -7.70883
      H1   -12.04517   15.69956   -7.06504
       H   -17.51822   18.45071   -7.86710
       O   -18.19566   17.85471   -8.23975
      H1   -18.90513   17.68020   -7.61461
       H   -15.31251   17.72149   -7.14259
       O   -15.07061   16.85020   -6.77696
      H1   -15.62287   16.33209   -7.30387
       H   -15.06048   10.53010   -5.90495
       O   -15.51504   11.15264   -5.32722
      H1   -15.06285   12.03644   -5.46965
       H   -17.84998   15.55573  -11.82038
       O   -18.60290   15.07416  -11.52106
      H1   -19.08209   14.85324  -12.36709
       H   -17.45142   10.59063   -9.84908
       O   -16.90073   10.43269  -10.61256
      H1   -17.53888   10.69692  -11.31191
       H   -18.03670    9.30819    0.04382
       O   -17.33557    9.25872   -0.60108
      H1   -17.79386    8.97849   -1.42366
       H   -17.48921   15.72102   -2.22767
       O   -17.97702   15.34110   -1.48495
      H1   -18.31616   16.10953   -1.05325
       H   -16.67524   10.79436   -1.10714
       O   -16.21947   11.59964   -1.32825
      H1   -16.78458   12.28302   -0.99641
       H   -11.50946   12.57937   -4.44595
       O   -10.99768   13.22719   -4.99154
      H1   -10.10994   13.28902   -4.57235
       H   -15.48486    8.90933   -8.26904
       O   -15.18753    9.57437   -7.64038
      H1   -15.12962   10.47790   -8.03510
       H   -15.84095   14.59621   -5.79400
       O   -16.76577   14.67583   -5.75283
      H1   -17.14878   14.06645   -5.08886

