141
frame 1 | Written by MDAnalysis XYZWriter (release 2.4.3)
       H   -10.96462  -15.81216   -6.82815
       O   -10.37521  -15.99406   -7.58092
      H1   -10.26660  -16.94058   -7.71904
       H    -9.90620  -19.42854   -7.17516
       O    -9.90105  -19.77777   -6.28034
      H1   -10.65091  -19.34028   -5.87413
       H    -2.04796  -15.00362  -10.55048
       O    -2.94689  -15.07655  -10.16940
      H1    -3.33063  -14.19732  -10.12862
       H   -10.30454  -16.75407   -3.08559
       O    -9.79082  -16.09313   -3.54021
      H1    -9.23254  -16.58027   -4.13379
       H     0.63256  -11.98115   -6.31925
       O    -0.22835  -12.33995   -6.50846
      H1    -0.66289  -12.74792   -5.70409
       H     1.89004  -18.92018   -2.79891
       O     2.54178  -19.34829   -2.19950
      H1     2.43249  -18.82866   -1.36327
       H    -1.27084  -18.69174   -7.41947
       O    -0.87623  -19.16265   -8.20856
      H1    -1.57005  -19.82533   -8.31725
       H    -4.12108  -17.31127   -4.18453
       O    -3.30499  -16.84121   -4.14338
      H1    -3.01561  -16.66495   -5.06612
       H    -9.31165  -14.95819   -6.62816
       O    -9.19620  -14.00844   -6.30780
      H1    -8.31890  -13.76317   -6.50500
       H    -5.89438  -20.06813   -1.69019
       O    -6.17342  -19.55224   -0.91765
      H1    -6.61519  -18.75566   -1.34915
       H    -2.35107  -14.58626   -4.19441
       O    -1.87547  -13.76382   -4.43275
      H1    -2.48905  -13.06097   -4.65756
       H    -8.46994  -18.48667   -5.68827
       O    -8.21737  -17.55885   -5.45394
      H1    -8.03729  -17.22027   -6.32795
       H     0.67964  -12.89408   -3.87358
       O     1.34313  -12.25091   -3.66682
      H1     0.86181  -11.62456   -3.12577
       H    -6.05429  -15.39275   -6.59275
       O    -6.75469  -15.88996   -7.07380
      H1    -7.06842  -15.38719   -7.83971
       H    -3.10679  -10.94630   -4.52954
       O    -3.03547  -11.13019   -5.45307
      H1    -2.45791  -10.44506   -5.85035
       H    -9.19616  -18.82437   -1.53037
       O    -9.42375  -19.03812   -2.45698
      H1   -10.39347  -18.91273   -2.44273
       H   -10.53457  -18.22449   -9.53445
       O    -9.96686  -18.56146   -8.80932
      H1    -9.06896  -18.50228   -9.16541
       H    -7.66882  -15.82783    3.12111
       O    -6.91007  -15.43988    2.65361
      H1    -7.15230  -15.62774    1.71123
       H    -1.99446  -18.86126    2.37157
       O    -1.90853  -19.44306    3.15124
      H1    -0.97949  -19.29514    3.29723
       H     0.66647  -18.56492   -4.71454
       O     0.35145  -18.98104   -3.94914
      H1    -0.20025  -18.38962   -3.46283
       H    -9.29544  -14.78292   -2.24378
       O    -8.83951  -14.04605   -1.86838
      H1    -9.39548  -13.62825   -1.24839
       H    -4.51543  -13.98107   -6.20418
       O    -4.72407  -14.79919   -5.74320
      H1    -5.37810  -14.65449   -5.05748
       H    -5.61553  -15.20137   -0.71294
       O    -4.95465  -14.69976   -1.19857
      H1    -4.14259  -15.24292   -1.07432
       H    -5.18257  -13.36725  -10.00182
       O    -4.44695  -12.74206  -10.01118
      H1    -4.34002  -12.64227   -9.08393
       H    -5.67311  -18.93306   -3.67284
       O    -5.61678  -18.38940   -4.41878
      H1    -6.47822  -17.93973   -4.58663
       H    -8.49435  -10.96692   -5.28356
       O    -7.48502  -10.98791   -5.43312
      H1    -7.22310  -11.43136   -4.61946
       H    -5.11009  -18.63873    0.31400
       O    -4.33676  -18.48807    0.92867
      H1    -4.59193  -18.00278    1.74723
       H    -1.39555  -14.58520   -1.57100
       O    -2.12379  -15.16907   -1.33268
      H1    -1.91636  -16.02513   -1.74006
       H    -3.05134  -17.12757   -7.39390
       O    -2.35374  -17.25182   -6.68267
      H1    -1.56254  -16.70888   -6.94304
       H    -3.92378  -12.07630   -6.61925
       O    -4.56351  -12.55763   -7.21319
      H1    -5.22666  -11.86501   -7.25616
       H    -2.01052  -15.56803    0.69328
       O    -1.83649  -16.18594    1.44674
      H1    -1.68365  -15.59365    2.19043
       H     0.46424  -17.21515  -10.43104
       O    -0.46436  -16.98308  -10.22207
      H1    -0.74353  -17.78351   -9.74526
       H    -6.77886  -14.23467   -3.14589
       O    -6.34772  -14.95531   -3.62145
      H1    -5.50246  -15.10559   -3.09965
       H    -3.72402  -16.23629    2.21558
       O    -4.31771  -16.58377    2.90153
      H1    -5.17136  -16.18593    2.66563
       H    -7.80233  -12.81260   -2.38014
       O    -7.26305  -12.20294   -2.95632
      H1    -6.54014  -12.04630   -2.34813
       H    -4.52314  -11.36759   -1.36982
       O    -5.13629  -11.88571   -0.82924
      H1    -4.83250  -12.78165   -0.93701
       H     0.87674  -18.92784   -7.44720
       O     1.72833  -18.95230   -6.99874
      H1     2.22011  -18.11669   -7.05278
       H    -7.25504  -16.52332   -0.73520
       O    -7.04521  -15.87723   -0.03315
      H1    -7.47191  -15.05110   -0.22693
       H    -2.22190  -17.58046   -3.05701
       O    -1.47286  -17.82095   -2.53040
      H1    -1.76185  -18.40429   -1.84638
       H     3.10677  -15.65257   -3.90141
       O     2.67422  -15.33106   -4.65173
      H1     2.05790  -14.70670   -4.29985
       H    -7.60878  -15.02584  -10.01821
       O    -8.14391  -14.94648   -9.25674
      H1    -8.93575  -15.48783   -9.42491
       H   -12.26082  -14.88123   -5.49141
       O   -11.97040  -15.80265   -5.21205
      H1   -11.08223  -15.72888   -4.86806
       H     1.02813  -15.95496   -7.55388
       O     0.09033  -15.64539   -7.69043
      H1    -0.19932  -16.08384   -8.48737
       H    -8.07064  -17.58395   -2.57618
       O    -7.22973  -17.21553   -2.28031
      H1    -7.01379  -16.49068   -2.94163
       H    -4.63004  -16.71889   -9.32639
       O    -4.75246  -17.22458   -8.47325
      H1    -5.38776  -16.68360   -7.96326
       H    -5.04703  -18.95340   -8.49483
       O    -5.24568  -19.92969   -8.28982
      H1    -4.66538  -20.09911   -7.49709
       H    -4.02662   -9.98733   -2.56127
       O    -3.40609  -10.71088   -2.67285
      H1    -2.51054  -10.52928   -2.28633

