141
frame 11 | Written by MDAnalysis XYZWriter (release 2.4.3)
       H     5.72401    2.71023   11.89426
       O     5.41209    1.83417   11.68201
      H1     5.15880    1.39821   12.48307
       H     1.90730    3.50870   10.07441
       O     2.43263    3.93043   10.74382
      H1     2.30853    3.39041   11.50325
       H     2.98531   -1.84106   11.17108
       O     3.92193   -1.75170   11.47126
      H1     4.38960   -1.28515   10.77363
       H     8.73192   -4.28973   12.14556
       O     8.85108   -4.20688   11.16161
      H1     8.29894   -4.90349   10.76440
       H     4.82187   -4.43636    7.83748
       O     5.27975   -3.94715    8.54814
      H1     5.76067   -4.57636    9.11419
       H     2.94032   -3.66742    6.66369
       O     3.33381   -4.56815    6.56508
      H1     2.62246   -5.15171    6.86679
       H     2.28511   -6.14621   14.47129
       O     3.05591   -6.10386   15.03461
      H1     3.78360   -6.15079   14.37621
       H     5.98162   -1.74299    5.91527
       O     5.17326   -1.25083    5.85372
      H1     5.17386   -0.70501    6.66013
       H     5.64288    3.28256    6.35463
       O     5.04342    3.30340    7.10160
      H1     5.46628    3.93378    7.64791
       H    -1.66926   -0.30665   12.60127
       O    -2.53545   -0.52318   13.00054
      H1    -2.85850    0.29144   13.32172
       H     0.96936   -7.56377   12.34184
       O     1.25283   -6.74223   12.81405
      H1     1.60069   -6.23787   12.08585
       H     5.57103   -4.86366   15.29507
       O     5.83786   -3.93672   15.18781
      H1     6.77425   -3.96391   14.74252
       H    -1.08124   -4.67678    7.76638
       O    -1.31250   -3.77957    7.95903
      H1    -0.66896   -3.22448    7.49111
       H     6.20019   -0.75938   17.14719
       O     6.67268   -1.24561   16.42883
      H1     6.02332   -1.70794   15.89972
       H     1.97834   -1.13578    8.96351
       O     2.01548   -0.64037    9.77907
      H1     1.85858    0.26372    9.60558
       H     1.45283   -3.09732   15.29643
       O     0.63235   -3.59456   15.27505
      H1    -0.13142   -3.01128   15.50650
       H     6.76253   -6.59757    9.96691
       O     7.07661   -5.69476    9.79475
      H1     7.58933   -5.82036    8.99055
       H     3.89109   -1.09512    4.56411
       O     3.39768   -0.85570    3.77225
      H1     2.78789   -1.57994    3.54226
       H    -0.57980   -3.50636   12.22551
       O     0.39223   -3.36990   12.38529
      H1     0.44371   -3.52399   13.35911
       H     4.91902   -0.94145   12.92992
       O     5.43876   -0.25372   13.45124
      H1     5.07344   -0.39926   14.33927
       H     3.12155   -5.01142   11.05341
       O     2.16304   -5.19156   10.77063
      H1     1.66621   -4.50461   11.19890
       H    10.57638   -0.29650   12.03150
       O    10.80422   -0.32950   11.09731
      H1    10.09672   -0.80382   10.69022
       H     1.38004   -0.19057   15.60521
       O     1.02714   -0.07236   16.49930
      H1     1.50295   -0.66019   17.11234
       H     6.43756    2.19448   15.14447
       O     5.83458    2.99721   15.08204
      H1     5.02859    2.76330   15.52246
       H     6.30590    4.08716   13.67879
       O     6.53556    4.36319   12.76236
      H1     6.34288    5.28294   12.63535
       H     1.43596   -1.95291    7.06192
       O     0.54858   -2.03469    6.75233
      H1     0.39419   -1.26787    6.14537
       H     8.97736   -1.84710    8.92453
       O     8.69238   -1.68297    9.86198
      H1     8.70504   -2.56728   10.32969
       H     6.63602   -0.49877    9.64567
       O     5.73265   -0.16335    9.74938
      H1     5.71724    0.58948   10.35864
       H     8.44059   -5.41176   14.31810
       O     8.37612   -4.54392   13.91236
      H1     8.87163   -3.97835   14.55908
       H     4.42571   -3.34153   11.65178
       O     4.75552   -4.23700   11.59059
      H1     5.61592   -4.16987   11.23446
       H     5.05050   -6.76712   12.20462
       O     4.88275   -7.16702   13.06376
      H1     4.44928   -8.03121   12.88998
       H     9.98245   -2.71490    7.20975
       O     9.65102   -1.79385    7.23404
      H1     8.88124   -1.83769    6.68098
       H     3.37366   -1.04159    7.72115
       O     3.04953   -1.93767    7.74271
      H1     3.69658   -2.36335    8.33149
       H     3.82163   -4.14104    4.98940
       O     4.31229   -3.58954    4.32357
      H1     4.61438   -2.82954    4.84453
       H     4.37998   -3.12656   14.79152
       O     3.60462   -2.55747   14.85494
      H1     3.56530   -2.18517   13.93570
       H     7.02744    0.40953   14.01700
       O     7.68691    0.77362   14.64901
      H1     7.55622    0.24759   15.47381
       H     0.99250    2.02441    8.00187
       O     1.59720    1.96525    8.75607
      H1     2.41595    1.87710    8.30621
       H    -0.86652   -0.88327   10.87101
       O    -0.25347   -0.25918   11.40428
      H1     0.54293   -0.41098   10.91365
       H     0.89622    0.25967   13.07193
       O     1.56778    0.38822   13.76246
      H1     2.02750    1.23437   13.56062
       H     1.01660   -6.81177    8.14819
       O     1.82524   -6.39457    8.37617
      H1     1.72710   -5.77505    9.12304
       H     6.59221   -3.17437    7.50468
       O     7.11724   -3.33225    6.66246
      H1     7.37537   -4.30088    6.62985
       H     4.75478    0.46779    8.62153
       O     4.10156    0.74798    7.92991
      H1     4.38353    1.54297    7.52782
       H     3.82779    2.58621   12.99470
       O     2.87168    2.73646   13.12697
      H1     2.75485    3.52411   13.67486
       H     9.43398    0.61813   14.36819
       O    10.36800    0.57015   14.07092
      H1    10.67441    1.41627   14.40483
       H    -1.83433    2.75361   11.53150
       O    -0.88079    2.67961   11.33070
      H1    -0.79134    1.83451   10.88844
       H     8.55728    2.52000    9.63616
       O     8.61920    1.76257    9.09730
      H1     9.00811    1.06715    9.60359
       H     7.90754    4.75490    9.76473
       O     8.57103    4.23460   10.23012
      H1     8.06812    4.17825   11.03516

