141
frame 10 | Written by MDAnalysis XYZWriter (release 2.4.3)
       H   -13.71267   15.53516    3.51432
       O   -13.86890   15.58034    4.48825
      H1   -14.50344   16.31848    4.55193
       H   -16.89033   14.50699    5.48516
       O   -17.12458   13.70484    5.09286
      H1   -16.49458   13.42246    4.41714
       H   -12.97888   17.57282   -0.59253
       O   -13.60324   18.26877   -0.40059
      H1   -13.27477   18.75090    0.39066
       H   -12.05296   15.50346    0.12838
       O   -12.12097   16.07104   -0.66052
      H1   -12.79959   15.72065   -1.23150
       H    -9.27632   19.51848    1.13967
       O    -9.93614   18.97068    0.68557
      H1   -10.49756   18.59861    1.39919
       H    -9.78089   16.61740    6.94056
       O    -9.69712   15.89334    7.56870
      H1    -9.64710   15.14808    6.95017
       H   -18.28997   14.62507    4.00756
       O   -18.58982   15.30904    3.38918
      H1   -19.55309   15.51541    3.48247
       H   -10.61929   19.35987    7.22349
       O    -9.84929   18.75025    7.31997
      H1    -9.50387   18.83011    6.41038
       H   -13.07138   15.61819   -3.62666
       O   -13.81280   15.20278   -3.16779
      H1   -14.57075   15.82946   -3.11375
       H    -8.71842   13.03133   -0.46504
       O    -8.11480   12.35967   -0.20436
      H1    -7.27481   12.87360   -0.13982
       H   -13.92546   17.39116    2.74456
       O   -14.49671   17.99922    3.18670
      H1   -15.27296   17.96960    2.67117
       H    -7.20096   19.50445   -2.76251
       O    -8.03834   19.31831   -3.19807
      H1    -8.67687   19.78772   -2.68515
       H   -19.08945   18.30355    0.92995
       O   -18.59806   19.14170    0.93391
      H1   -19.09955   19.90341    0.59976
       H    -8.51576   18.09074    4.74072
       O    -7.90529   18.77922    5.17236
      H1    -7.44941   18.41234    5.94202
       H   -14.21295   14.14175   -4.56182
       O   -14.37416   13.40642   -5.16625
      H1   -13.64313   13.32955   -5.84506
       H   -11.48447   16.86924    1.93145
       O   -11.44263   17.58620    2.59214
      H1   -10.88245   17.21366    3.25383
       H   -11.21844   16.03755   -4.83330
       O   -11.99814   16.52206   -5.08416
      H1   -11.65678   17.45987   -5.04714
       H   -16.09182   17.59236   -2.49948
       O   -16.26047   16.71048   -2.89967
      H1   -16.51071   16.97705   -3.79470
       H   -17.96393   18.35278    2.72871
       O   -17.53407   17.87359    3.47196
      H1   -17.80894   16.95914    3.31222
       H   -18.32360   14.44881    0.50421
       O   -18.24953   13.71702    1.18333
      H1   -18.43533   14.18540    2.02440
       H    -9.02332   12.68397    2.67923
       O    -8.66173   11.84219    2.43004
      H1    -8.13669   11.99331    1.63793
       H   -16.35340   19.55720   -1.56321
       O   -15.64202   19.36436   -2.17445
      H1   -14.87232   19.20784   -1.66840
       H   -16.52187   13.09775    1.79766
       O   -15.73975   13.11014    2.40007
      H1   -15.25203   12.34709    2.09350
       H   -14.08230   13.36033   -2.33669
       O   -13.85682   12.78008   -1.56877
      H1   -14.11143   11.90966   -1.88267
       H   -15.32689   17.49409    6.22319
       O   -16.02119   17.00460    5.74782
      H1   -16.20171   17.59385    5.02419
       H    -9.68236   16.06520    4.50479
       O    -9.91114   16.98079    4.68993
      H1   -10.79226   16.96904    5.08861
       H    -7.84246   16.06822   -3.70756
       O    -7.16060   15.72810   -3.07534
      H1    -7.09613   14.80166   -3.28319
       H    -9.58086   14.34559   -2.06831
       O    -9.68574   14.61219   -1.15664
      H1   -10.44634   15.22727   -1.23349
       H   -11.25998   11.18209   -1.93041
       O   -11.62148   11.68593   -2.64868
      H1   -12.24253   12.18725   -2.11409
       H    -8.54668   17.03123   -5.47056
       O    -8.99193   16.92368   -4.59479
      H1    -8.71050   17.76790   -4.14471
       H   -14.82405   15.46388    0.61202
       O   -14.38303   15.29050    1.49634
      H1   -14.83403   14.47525    1.77380
       H    -9.93079   14.01558    4.31269
       O    -9.44092   14.41498    3.61898
      H1   -10.16400   14.79768    3.01608
       H   -17.65266   13.58007   -2.15655
       O   -17.96323   12.74934   -2.69125
      H1   -17.89752   13.03124   -3.59006
       H    -5.83849   18.62884   -1.11427
       O    -6.36792   18.86765   -0.32287
      H1    -5.67953   19.46142    0.02453
       H   -13.29221   16.24023   -8.05611
       O   -12.48535   15.97924   -7.63050
      H1   -12.48799   16.32790   -6.72502
       H   -11.85521   13.50550    5.65313
       O   -10.97368   13.84896    5.93894
      H1   -10.52481   13.30479    6.57898
       H   -18.28086   17.69313   -4.68811
       O   -17.40285   17.83067   -5.03472
      H1   -17.37058   17.11162   -5.75390
       H   -13.85563   18.45765    7.89868
       O   -13.87089   18.80814    6.95682
      H1   -13.30534   18.22890    6.41144
       H    -7.12881   16.72566    1.67282
       O    -6.20400   16.99933    1.84748
      H1    -5.95082   17.55306    1.04110
       H   -11.93120   12.01842    1.16076
       O   -12.73500   12.53874    1.37925
      H1   -13.38717   12.16424    0.76921
       H   -14.09121   13.73962    5.42426
       O   -13.72200   12.95194    5.84750
      H1   -14.15877   12.23832    5.41347
       H    -8.53344   16.00046    0.04308
       O    -8.77895   16.52267    0.78340
      H1    -9.15133   17.37242    0.57300
       H   -12.10064   16.46169    6.89218
       O   -12.15672   16.89824    6.04350
      H1   -12.57106   16.31443    5.42157
       H   -17.70845   16.53925    6.44213
       O   -18.41440   16.24891    7.02405
      H1   -18.86866   17.00845    7.31490
       H   -17.52390   16.03778   -1.65873
       O   -18.21598   15.55330   -1.16492
      H1   -18.78617   16.22199   -0.80613
       H   -10.03740   12.69943   -3.50931
       O    -9.66382   13.55694   -3.68685
      H1    -8.79436   13.47966   -4.09806
       H   -11.44568   13.91491    1.35287
       O   -11.15780   14.86597    1.57504
      H1   -10.29120   14.92722    1.11712

