141
frame 10 | Written by MDAnalysis XYZWriter (release 2.4.3)
       H    -3.86023   -3.02480  -11.79592
       O    -3.16625   -3.49748  -11.31500
      H1    -2.34701   -3.04433  -11.61429
       H     7.40056   -6.79891  -12.44548
       O     7.97161   -5.96639  -12.66650
      H1     8.50506   -5.87198  -11.88938
       H     8.74725   -4.07763  -15.64300
       O     8.32813   -3.22453  -15.79071
      H1     7.88758   -2.93352  -14.95954
       H    -2.41617   -3.51995  -16.63420
       O    -1.85441   -4.11992  -16.22120
      H1    -1.54290   -3.81007  -15.34383
       H    -1.95856  -10.12669  -13.14038
       O    -1.37844   -9.49396  -13.60250
      H1    -1.56452   -9.62221  -14.52511
       H     3.56370   -4.54507   -9.35873
       O     2.80280   -4.72997   -9.86033
      H1     2.87519   -5.61464  -10.29161
       H    -0.75687   -5.72409   -9.57203
       O    -1.35180   -6.47871   -9.87014
      H1    -2.25339   -6.10490   -9.99582
       H     6.44839   -5.52038  -18.94357
       O     6.67982   -6.46728  -18.79412
      H1     5.88092   -6.92045  -19.18816
       H     5.87231   -6.21981  -16.95481
       O     5.02482   -6.40820  -16.57000
      H1     5.08126   -6.12558  -15.63769
       H    -2.30174   -0.95896  -15.13668
       O    -2.97789   -1.68183  -15.04870
      H1    -3.78846   -1.16389  -15.10288
       H     3.69472   -9.52125  -16.97340
       O     3.55381   -8.64271  -17.34856
      H1     4.01355   -7.93338  -16.84105
       H     4.56037    2.54616  -13.91391
       O     4.25741    1.62026  -14.02163
      H1     5.05206    1.19388  -14.41765
       H     2.21403   -0.72525  -14.11565
       O     2.76466   -0.87608  -14.93152
      H1     2.75600   -0.03152  -15.38083
       H     6.51150   -3.53724  -13.24562
       O     7.13983   -2.79085  -13.21369
      H1     6.53505   -2.19554  -13.60574
       H     2.51300   -0.92447  -11.29740
       O     3.04718   -1.74143  -11.40597
      H1     2.71401   -2.31187  -10.72493
       H    -1.49883   -6.87067  -17.20464
       O    -1.85462   -6.34678  -17.90229
      H1    -2.24599   -5.62924  -17.43854
       H    -2.80468   -2.04127  -18.77349
       O    -3.11928   -2.94971  -18.54985
      H1    -2.74911   -3.52178  -19.24926
       H     2.95913   -7.72768  -11.00701
       O     2.73029   -6.98846  -11.57870
      H1     1.77859   -7.04530  -11.74230
       H     7.52785   -0.15799  -14.36639
       O     6.58225    0.05448  -14.56785
      H1     6.71360    0.42876  -15.48115
       H     6.92317   -8.99238  -14.40144
       O     6.15262   -9.20065  -14.96557
      H1     5.45954   -9.49639  -14.45039
       H     2.00865   -8.91441  -19.63498
       O     1.96872   -9.88651  -19.63224
      H1     2.46342  -10.19715  -18.90235
       H    -0.30839   -0.15372  -18.60692
       O     0.61396   -0.44974  -18.45912
      H1     0.50764   -1.29902  -18.09037
       H    -1.74555    1.56011  -12.66714
       O    -1.18246    1.38113  -13.41743
      H1    -0.55322    0.66817  -13.04333
       H     1.11741    0.43325  -11.82841
       O     0.82094   -0.10885  -12.61013
      H1     0.53329   -0.99935  -12.28056
       H     3.23617   -9.95879  -14.23291
       O     3.25119  -10.91422  -14.32593
      H1     2.36999  -11.15772  -13.94874
       H     6.95334   -9.40102  -16.55179
       O     7.51805   -9.53886  -17.34911
      H1     7.26731   -8.85795  -17.96423
       H     0.62129   -5.90009  -19.92684
       O     0.21518   -5.29560  -19.28133
      H1    -0.55880   -5.79413  -19.01682
       H     0.18912    0.25779  -16.08134
       O    -0.74873    0.22138  -15.86190
      H1    -0.75865    0.74386  -15.07748
       H     0.32548   -1.69954  -16.06560
       O     0.32905   -2.55717  -16.58271
      H1    -0.51828   -2.92762  -16.44168
       H    -2.80447   -8.37550  -13.24193
       O    -3.56062   -8.24735  -12.62486
      H1    -4.21515   -7.81765  -13.23812
       H     0.36948  -10.01703  -19.09712
       O    -0.45809   -9.86488  -18.68425
      H1    -1.08374  -10.52671  -19.01405
       H     2.55847   -7.69519  -14.63661
       O     3.23637   -8.10670  -13.99953
      H1     3.09773   -7.59862  -13.20086
       H     4.68289   -5.81459  -12.74247
       O     5.33349   -6.14306  -13.37527
      H1     4.87712   -6.91910  -13.75570
       H     4.47119   -4.03446  -18.70821
       O     5.19004   -4.01793  -18.04076
      H1     4.90861   -4.56466  -17.27603
       H    -0.65843   -2.35916  -11.05169
       O    -0.87401   -2.32616  -11.98230
      H1    -0.44692   -3.12854  -12.28364
       H    -4.88413   -3.83585  -13.96069
       O    -4.63926   -4.30452  -14.73423
      H1    -3.73906   -3.94615  -14.95736
       H     3.03248    1.99669  -15.28041
       O     2.31410    2.02599  -15.94264
      H1     2.50842    2.70130  -16.59247
       H     2.09380   -7.93838  -16.53346
       O     1.36731   -7.54476  -16.03807
      H1     1.23456   -6.66379  -16.44298
       H     2.89415   -4.35406  -14.94254
       O     2.29863   -4.77478  -15.59263
      H1     1.86534   -4.04183  -16.07866
       H     6.68526   -1.51068  -10.27730
       O     7.24980   -2.23255  -10.58720
      H1     6.97557   -2.46208  -11.50401
       H     3.45274   -2.40722  -14.40605
       O     3.61649   -3.15214  -13.75978
      H1     3.67250   -2.65431  -12.95471
       H    -0.51218   -6.84609  -11.46501
       O    -0.12099   -6.98645  -12.31947
      H1    -0.51031   -7.83502  -12.64561
       H     0.15265   -5.33489  -13.22709
       O     0.33235   -4.40369  -13.53825
      H1     0.76871   -4.66860  -14.35605
       H    -0.90564   -9.27527  -17.15432
       O    -1.10668   -8.82759  -16.34213
      H1    -0.29141   -8.33457  -16.02211
       H     0.42321  -11.79039  -13.28469
       O     0.83508  -11.02931  -12.82205
      H1     0.12636  -10.36970  -12.91014
       H     8.05179   -3.50018  -17.49110
       O     8.24212   -3.76409  -18.38530
      H1     8.90116   -3.10793  -18.62926
       H     6.96917   -1.76371  -18.18093
       O     7.25195   -0.91321  -18.50800
      H1     8.18071   -1.00513  -18.76584

