141
frame 7 | Written by MDAnalysis XYZWriter (release 2.4.3)
       H    -6.05846   -9.00898    5.79936
       O    -5.98124   -8.33867    6.56576
      H1    -6.91677   -8.11016    6.73742
       H    -7.06659   -7.13333    9.77285
       O    -8.01272   -7.20299    9.69105
      H1    -8.22073   -8.14754    9.66391
       H    -3.36327   -2.79702   11.18765
       O    -2.95473   -1.93133   11.25194
      H1    -2.48152   -1.97060   12.09331
       H    -9.14525   -5.96362    5.04421
       O    -9.18188   -5.09830    4.60528
      H1    -8.53969   -4.49969    4.98099
       H    -1.21129   -6.01671    5.97530
       O    -0.52726   -6.66564    6.19263
      H1    -1.04958   -7.39097    6.55477
       H     1.73595   -6.80959    3.84245
       O     1.05660   -7.42934    3.54096
      H1     0.80747   -7.81662    4.36604
       H    -4.26759   -5.53575   12.79027
       O    -4.24950   -5.17457   11.88616
      H1    -4.68791   -5.79736   11.27465
       H    -9.81566   -4.60744    8.98532
       O    -9.29945   -4.60762    8.16189
      H1    -9.27673   -5.53034    7.88623
       H    -6.83770   -3.78681   10.84883
       O    -6.76340   -4.09305   11.73431
      H1    -5.82316   -4.41145   11.89257
       H    -3.55748  -10.80921    5.37829
       O    -3.24746   -9.94872    5.01269
      H1    -3.19368  -10.14481    4.05946
       H    -0.30176   -3.61406    7.34086
       O    -1.12819   -3.13218    7.19951
      H1    -0.84496   -2.32608    6.66110
       H    -7.32557   -3.40990    8.64172
       O    -7.45321   -2.71103    9.35022
      H1    -6.52282   -2.44240    9.48610
       H    -2.24150   -6.71558    9.65681
       O    -1.63731   -7.12537   10.25977
      H1    -1.13093   -6.42917   10.73279
       H    -5.36625   -6.94620    5.43284
       O    -4.82698   -6.31262    4.88877
      H1    -5.31243   -6.15613    4.05967
       H    -2.78124   -8.69183   13.21593
       O    -1.89668   -8.28452   12.93391
      H1    -2.12063   -7.89880   11.97809
       H    -8.23007   -2.46878    5.78067
       O    -7.56990   -2.83934    5.16625
      H1    -7.76403   -2.67957    4.19565
       H    -4.94896   -7.51439   10.97844
       O    -5.30296   -7.09488   10.23188
      H1    -4.74406   -7.47820    9.52838
       H    -1.68515   -4.25214   10.83696
       O    -0.88804   -4.57968   11.23213
      H1    -1.13198   -4.68693   12.15143
       H    -1.91450   -9.51790    5.99792
       O    -1.25798   -9.16473    6.62787
      H1    -0.89483   -9.95640    7.14200
       H     2.68906   -5.82899   10.68942
       O     1.74265   -5.84642   10.36349
      H1     1.18940   -5.17630   10.83986
       H    -2.08329   -1.07331    9.97338
       O    -1.23022   -0.89910    9.53714
      H1    -1.23294   -1.65756    8.87825
       H     0.87738   -0.70148    6.39119
       O     0.19307   -0.68247    5.68135
      H1    -0.20128    0.17388    5.49925
       H    -6.01603   -1.13478   13.09503
       O    -5.63816   -1.98890   13.44270
      H1    -6.19850   -2.62349   12.94636
       H    -5.45108   -0.41895    9.38447
       O    -5.12573   -1.32375    9.55356
      H1    -4.74102   -1.29620   10.42055
       H    -8.97818   -5.88700   10.69535
       O    -9.68046   -5.58351   11.30796
      H1    -9.27590   -4.90822   11.85329
       H     3.07937   -7.64406    7.75216
       O     2.77974   -8.23033    8.45686
      H1     1.86645   -8.09434    8.66420
       H     0.26533   -9.27339   10.53260
       O     0.32613   -8.85263    9.60389
      H1    -0.32622   -8.17022    9.78406
       H    -3.03881   -8.46141    8.05510
       O    -3.90072   -8.46012    8.49002
      H1    -4.50365   -8.56537    7.73796
       H    -4.01049    0.50443    6.91745
       O    -4.49828    0.46044    6.08614
      H1    -3.96623    0.90087    5.40712
       H    -2.51149   -4.51099    8.06235
       O    -2.97897   -5.23781    8.49831
      H1    -3.81313   -5.19302    8.00632
       H    -4.66349   -1.29158    5.15661
       O    -4.77099   -2.24970    4.80636
      H1    -5.74746   -2.31526    4.78143
       H    -5.86171   -5.16607    2.20112
       O    -6.34407   -5.91623    2.49657
      H1    -7.15596   -5.54073    2.77655
       H     0.31858   -9.57004    5.94936
       O     1.18788   -9.82032    5.49951
      H1     1.74293  -10.13130    6.22686
       H    -5.35837   -8.97251   12.65419
       O    -4.67929   -8.31368   12.45999
      H1    -4.65925   -7.71980   13.17560
       H    -2.38384   -3.91124    5.72257
       O    -2.38202   -4.61316    5.07717
      H1    -3.33198   -4.66695    4.77480
       H    -2.24480   -6.94911    3.17968
       O    -3.10936   -7.43234    3.25851
      H1    -3.60367   -7.09338    4.00227
       H    -8.92380   -0.04669    7.51245
       O    -8.45910   -0.81696    7.12771
      H1    -7.93526   -1.26025    7.83953
       H    -0.02554   -2.81642   11.87416
       O     0.37303   -1.92929   11.79538
      H1    -0.17999   -1.62739   11.07223
       H     0.46125   -5.87610    7.48450
       O     1.10658   -5.12410    7.64902
      H1     1.34549   -5.20913    8.59543
       H    -6.00295   -3.88396    6.29981
       O    -5.93978   -4.48388    7.02566
      H1    -5.62014   -5.25958    6.50190
       H    -4.25434  -11.50954    7.97704
       O    -4.62636  -11.66346    7.06450
      H1    -4.57275  -12.59494    6.92257
       H    -5.92683  -10.57186    3.65056
       O    -6.14835   -9.63378    3.92226
      H1    -5.36273   -9.10132    3.69759
       H    -3.78129   -1.59698    3.38440
       O    -3.31867   -1.25451    2.54618
      H1    -4.01404   -1.22044    1.78427
       H    -8.91541   -7.58115    8.04521
       O    -8.98233   -7.41202    7.10891
      H1    -9.36685   -8.23528    6.82706
       H    -2.17378  -11.35365    9.21173
       O    -3.16105  -11.23514    9.30664
      H1    -3.25314  -10.24027    9.23440
       H    -1.09998   -5.19995    3.33260
       O    -0.98829   -5.85535    2.58539
      H1    -0.29200   -6.36345    2.97299
       H    -5.53986   -6.07148   14.13528
       O    -4.62457   -6.39253   14.21924
      H1    -4.32197   -6.22949   15.09122

