141
frame 9 | Written by MDAnalysis XYZWriter (release 2.4.3)
       H   -11.82197   10.17043    3.04288
       O   -12.55755   10.71560    2.88803
      H1   -12.19480   11.60562    2.91824
       H   -16.11538   13.16360    5.19493
       O   -16.61075   13.49534    4.44970
      H1   -16.04347   13.07018    3.76354
       H   -12.25827    6.57246   -4.45001
       O   -11.37119    6.83153   -4.10209
      H1   -11.53994    6.85741   -3.10791
       H   -16.23476    5.35989    7.24994
       O   -15.62857    5.12177    6.49833
      H1   -14.69510    4.99842    6.82446
       H   -13.25011   10.43496    6.66657
       O   -12.45193   10.45869    7.23711
      H1   -12.69201    9.98542    8.07176
       H   -11.66572    7.35533    8.55038
       O   -11.38485    6.52437    8.09062
      H1   -11.43112    6.67652    7.12123
       H   -15.24773    5.13617   -2.44342
       O   -14.33612    5.22907   -2.06897
      H1   -14.16691    6.16660   -2.02958
       H   -13.20817    9.38801   -0.21950
       O   -12.72460    8.68661   -0.65909
      H1   -12.47583    8.15614    0.10969
       H   -15.30632    8.48607   -3.04768
       O   -14.47968    7.99924   -2.95965
      H1   -13.86276    8.46192   -2.42064
       H   -16.75136    8.59775    6.54468
       O   -16.65755    8.39714    7.44743
      H1   -17.01929    9.20879    7.85214
       H   -16.75490    5.73445    3.32971
       O   -16.77121    4.95088    3.86544
      H1   -16.39302    5.28001    4.67774
       H   -11.10613    9.67529    6.36568
       O   -10.38074    9.27460    5.87198
      H1   -10.50672    9.43078    4.94344
       H    -9.12479    6.04404    3.15952
       O    -9.08003    6.97288    2.78496
      H1    -8.10599    7.24302    2.67320
       H   -16.85082   14.78838    0.01870
       O   -16.65800   14.23652    0.76039
      H1   -17.48506   14.19197    1.18632
       H   -15.49637   13.29369    1.91692
       O   -15.09570   12.74863    2.58468
      H1   -14.74443   11.99669    2.12518
       H   -14.00115   13.62326   -2.22263
       O   -13.79232   12.87317   -1.65955
      H1   -14.53738   12.24999   -1.72089
       H   -16.82411   10.01316   -3.53733
       O   -16.87838    9.03488   -3.55741
      H1   -16.97803    8.82785   -4.49155
       H   -10.92036    7.71841    5.53449
       O   -11.48499    6.85662    5.49039
      H1   -12.39601    7.25872    5.37200
       H   -19.19372    7.08129    4.21599
       O   -19.03056    7.60103    5.03992
      H1   -18.05890    7.60160    5.15736
       H   -11.58134   10.94092   -2.87914
       O   -12.22474   11.27409   -3.48478
      H1   -12.92039   11.82106   -3.07539
       H   -15.58511    3.79090    0.75456
       O   -15.70079    4.69987    0.45506
      H1   -15.16932    4.79010   -0.34707
       H   -14.36349    9.98109    1.25499
       O   -14.40733   10.87030    0.87858
      H1   -15.27184   11.00272    0.47841
       H   -13.24378    5.01631    2.86820
       O   -13.75134    5.81433    2.48004
      H1   -14.49365    5.34822    2.05836
       H   -17.68332    5.31832   -2.36871
       O   -17.08694    4.82479   -2.94478
      H1   -17.23337    5.10308   -3.87364
       H   -17.89973   12.28455    5.19747
       O   -18.59327   11.65062    5.47152
      H1   -18.69072   11.18094    4.62665
       H   -19.20480    5.57344   -1.31690
       O   -18.94608    6.43307   -1.63540
      H1   -19.27559    6.55079   -2.53718
       H   -10.97118    3.64884    0.68166
       O   -10.70830    3.39177   -0.21179
      H1   -10.78321    4.16798   -0.74784
       H    -9.29447    9.95430    3.15500
       O   -10.12602    9.43195    3.29686
      H1    -9.80516    8.50481    3.27107
       H   -19.56728    3.57759    2.49071
       O   -18.60922    3.40192    2.38809
      H1   -18.13306    3.99493    3.03391
       H   -17.26924    6.75268    7.90035
       O   -17.39532    5.87065    8.25163
      H1   -18.39576    5.65865    8.16674
       H   -13.83877    6.35516    4.40463
       O   -14.16685    6.86824    5.14060
      H1   -14.65641    6.19352    5.66353
       H   -12.62772    2.84623   -3.65580
       O   -12.35130    3.49853   -3.01470
      H1   -13.11038    4.07800   -2.72119
       H   -11.78832   11.25043    0.25306
       O   -11.34439   11.87432   -0.35355
      H1   -12.13334   12.24751   -0.82506
       H   -14.47805   13.34248    5.82585
       O   -14.81691   12.67569    6.42625
      H1   -14.90169   11.90514    5.81316
       H   -14.30702    7.59728    1.96100
       O   -14.91937    8.37833    1.92602
      H1   -15.50109    8.07745    1.20429
       H   -15.57949    7.72984    4.70156
       O   -16.41648    8.22035    4.69165
      H1   -16.72920    8.16072    3.81654
       H   -10.63874    3.85921    2.89337
       O   -11.47363    3.70208    2.43702
      H1   -11.53289    2.73847    2.46811
       H   -15.11850    9.68587    5.00078
       O   -14.40287   10.34727    5.06923
      H1   -13.92869   10.35788    4.21728
       H   -14.00446    2.16644    0.74033
       O   -14.53022    2.40856    1.50131
      H1   -15.06754    1.61541    1.59054
       H   -18.86933    3.26067   -0.96714
       O   -19.33714    3.85601   -0.28287
      H1   -18.66430    3.92491    0.44775
       H   -18.03670    9.30819    0.04382
       O   -17.33557    9.25872   -0.60108
      H1   -17.79386    8.97849   -1.42366
       H    -9.74693    8.45595   -2.18890
       O   -10.33675    9.20482   -2.00814
      H1   -11.16365    8.92211   -1.66033
       H   -12.13803    6.26434    1.75398
       O   -11.55415    6.81727    1.23188
      H1   -10.67668    6.73097    1.64979
       H   -10.18761    6.34629   -1.24791
       O   -10.89914    5.71422   -1.22321
      H1   -11.35833    6.00875   -0.36108
       H   -16.67524   10.79436   -1.10714
       O   -16.21947   11.59964   -1.32825
      H1   -16.78458   12.28302   -0.99641
       H   -16.95454    6.02632    0.74644
       O   -17.39272    6.84073    0.97656
      H1   -17.37106    7.39606    0.19845
       H   -11.11533   13.54302    0.92316
       O   -11.21717   14.44736    1.32043
      H1   -10.47900   14.95781    0.98161

