141
frame 4 | Written by MDAnalysis XYZWriter (release 2.4.3)
       H     6.91781    7.56801   12.44158
       O     7.70481    7.12310   12.03452
      H1     7.88164    7.76148   11.38185
       H    16.67277    5.82897   11.38251
       O    15.99477    6.51973   11.06158
      H1    15.10800    6.31901   11.44305
       H    13.77499    3.13010    8.85334
       O    14.38608    3.82771    8.50408
      H1    13.94119    4.66255    8.65417
       H    12.62146   13.73560   15.72051
       O    13.36914   13.44074   16.29087
      H1    13.06251   13.28132   17.17359
       H    18.22896   11.20951   11.35830
       O    18.70881   11.44853   12.18080
      H1    18.91427   10.70175   12.72529
       H     9.18438    8.97100   13.98197
       O     9.73107    9.15814   13.19250
      H1     9.59101    8.38835   12.62852
       H    19.01959    7.00133    8.35973
       O    18.89807    6.15556    7.75943
      H1    18.61458    5.31401    8.17453
       H    12.25329   11.64527    9.05334
       O    11.34089   11.29801    8.99040
      H1    10.87973   11.87994    9.68880
       H    15.41212   10.25858    9.35069
       O    15.45758    9.91851   10.23914
      H1    15.50105    8.98110   10.10135
       H    12.53115    7.93721   14.68366
       O    11.97303    7.77374   13.90257
      H1    11.28554    8.47524   13.94588
       H    13.77199   10.31468   11.05367
       O    13.03774   10.74627   11.51638
      H1    12.28035   10.49604   10.91211
       H    10.12429   16.62672   10.63574
       O    10.71424   15.95472   10.44809
      H1    11.62032   16.33372   10.64728
       H    11.52505    7.19581    7.28126
       O    11.58971    8.00397    6.76660
      H1    10.76495    8.10017    6.30779
       H    17.09132    9.37968    4.42795
       O    16.52637    9.38726    5.21075
      H1    16.25487    8.50035    5.38494
       H    17.08965   14.51936    9.19141
       O    17.06248   15.45628    9.39773
      H1    16.87335   15.44183   10.30665
       H    11.03996   14.89590   14.16541
       O    11.11319   13.95855   14.51905
      H1    11.57239   13.46693   13.83664
       H    17.36647   11.03525    5.55726
       O    17.56577   11.96444    5.73585
      H1    18.43314   11.89500    6.14726
       H    15.59254    6.76717    6.51618
       O    15.78570    6.84452    5.53704
      H1    14.90924    6.79794    5.14831
       H     9.41649   13.70421   14.34977
       O     8.49817   13.86475   13.96232
      H1     7.79209   13.54782   14.60554
       H    10.08843   14.45350    5.70552
       O    10.52330   13.58827    5.42667
      H1    11.42844   13.61577    5.79483
       H    17.42682   12.12648    8.73755
       O    16.88952   12.85156    8.30613
      H1    16.94685   12.65939    7.37135
       H    12.98003    7.04292    4.29342
       O    13.13193    6.42729    5.06911
      H1    12.54253    6.85569    5.72293
       H    14.17170   13.08452    5.97537
       O    13.25180   13.01163    5.79162
      H1    13.11061   12.10162    5.57232
       H    18.33459   14.21241   13.57921
       O    17.66718   13.47672   13.58001
      H1    18.21667   12.71176   13.19520
       H    14.55925   10.65998   14.20158
       O    14.23296    9.79061   13.89923
      H1    13.58535   10.03065   13.20892
       H    11.63265    7.66283   11.39666
       O    10.96639    7.00382   11.10937
      H1    10.80247    6.51847   11.92111
       H    18.13769    8.78455   14.18881
       O    18.95390    8.88831   13.62918
      H1    19.68500    8.91260   14.21803
       H     5.90238   11.26221   10.75249
       O     6.60302   10.58994   10.82271
      H1     7.30824   10.89656   11.38654
       H    15.04767   12.09342    8.49853
       O    14.42504   11.42133    8.35470
      H1    14.48529   11.12183    7.46038
       H     8.55147   12.05673   13.13208
       O     8.49312   11.49130   12.41081
      H1     9.06769   10.77684   12.69740
       H    13.51974    9.33384    6.56796
       O    13.99096    9.94277    6.00445
      H1    14.85269    9.59326    5.80330
       H    19.08638    6.49690   11.64700
       O    19.61456    7.29205   11.72323
      H1    19.36201    7.70046   12.53819
       H    11.67440    6.40803    9.50473
       O    12.07148    6.04734    8.70090
      H1    11.59862    5.20143    8.63147
       H    10.24529   11.57085    7.71475
       O     9.62133   11.56890    6.93313
      H1     9.90200   12.38064    6.41893
       H    15.19608   16.01260   12.91625
       O    14.30394   15.78778   13.14892
      H1    14.12842   14.97635   12.70821
       H     8.39971   10.26817    7.89089
       O     7.70403    9.66282    8.22367
      H1     7.52888    9.88083    9.13733
       H    13.08624    6.75101   12.99029
       O    13.56026    6.09807   12.50651
      H1    13.56773    5.34174   13.09198
       H    10.17881   13.98247   10.59061
       O    10.34245   13.01824   10.87429
      H1     9.49586   12.67710   11.18221
       H    18.40520    9.90062    9.43584
       O    17.95814   10.73954    9.81366
      H1    17.04236   10.52998   10.06727
       H    13.78481   16.45927   11.53903
       O    13.34573   16.86999   10.79643
      H1    13.87527   16.73730   10.03415
       H    15.64892    8.90693   14.14432
       O    16.41457    8.31611   14.34031
      H1    16.42489    7.64222   13.62338
       H    10.58248    3.88395   12.25607
       O    10.83643    4.47151   13.01783
      H1    11.77156    4.62425   12.88955
       H    15.93865   12.54851   14.82603
       O    15.25836   12.02188   15.23695
      H1    14.59231   12.67012   15.58122
       H    12.12874   13.61409   11.77437
       O    12.94201   13.55857   12.32402
      H1    12.99396   12.57873   12.17141
       H    13.89384    6.69990    8.90347
       O    14.80160    6.95021    8.63271
      H1    15.32612    6.42473    9.26458
       H    17.05624   16.91898   12.61354
       O    16.70972   16.10210   12.13167
      H1    17.12119   15.41867   12.60143
       H    14.68636    8.05210   15.21021
       O    13.94029    7.75451   15.72390
      H1    13.62218    8.34889   16.36374

