141
frame 5 | Written by MDAnalysis XYZWriter (release 2.4.3)
       H     9.16579    5.46414  -10.31527
       O     9.86412    5.56120   -9.68342
      H1     9.50684    5.34421   -8.83395
       H     2.54982   10.51215   -2.13929
       O     2.78846    9.81373   -2.72428
      H1     2.66767    8.96293   -2.31907
       H     2.61035   11.61133   -6.41459
       O     3.00253   11.77570   -7.29645
      H1     3.49633   12.58973   -7.19176
       H     6.11899   12.35548   -1.83505
       O     5.36034   11.75896   -2.04058
      H1     5.34387   11.56890   -2.99174
       H    12.34157    5.67531   -7.02482
       O    12.04862    4.79823   -6.74369
      H1    12.03195    4.88217   -5.79705
       H     2.02476    5.09623   -0.05602
       O     2.73161    4.43429   -0.01677
      H1     2.37732    3.59263    0.21179
       H     8.66829   10.50265   -6.38943
       O     8.38719   11.34531   -5.98532
      H1     7.45442   11.21177   -5.84214
       H     4.04077    5.08920   -5.42027
       O     3.91715    5.89090   -5.95852
      H1     3.71200    5.63372   -6.87021
       H    11.01569    7.58792   -2.52072
       O    11.06513    7.57249   -1.56318
      H1    10.32885    6.94863   -1.33380
       H    10.28302    3.16893   -1.71609
       O    10.38738    4.11539   -2.00828
      H1    11.29407    4.19296   -2.25648
       H     9.54921   10.56734   -3.11148
       O     8.61807   10.51649   -3.46578
      H1     8.66878   11.06153   -4.24044
       H     5.17458    2.73456    0.19686
       O     5.83897    3.11520   -0.39173
      H1     5.35327    3.76380   -0.99683
       H     4.28276    4.00503   -3.66507
       O     4.21042    3.59421   -4.54633
      H1     3.52736    2.96172   -4.40453
       H     8.56931   10.61854    0.94588
       O     8.48353   10.91423    0.03869
      H1     9.33976   11.39415   -0.15448
       H     4.96145    3.47036   -7.71925
       O     4.14060    3.06104   -8.13163
      H1     3.74348    2.69021   -7.33383
       H     1.86934    4.23127   -3.24344
       O     1.87792    3.44584   -2.66931
      H1     2.41982    3.75455   -1.93267
       H     1.85522    7.05597   -1.04877
       O     2.54196    7.14171   -1.79238
      H1     2.06582    6.71593   -2.49878
       H    11.14186   10.88584   -1.20526
       O    11.10520   10.19853   -1.88759
      H1    11.01465    9.33968   -1.41952
       H    10.53829    5.03638    1.10627
       O    10.49813    4.14502    0.84521
      H1    10.52662    4.25066   -0.13856
       H     6.99973    5.93188  -10.16021
       O     7.16642    5.25175  -10.85933
      H1     6.32296    5.13454  -11.35516
       H     9.64338    8.66808   -8.36760
       O    10.09753    9.03217   -9.16312
      H1    10.38470    8.16981   -9.58804
       H     6.52175    9.04160   -1.02586
       O     5.64360    9.02484   -1.39304
      H1     5.61205    9.96599   -1.64544
       H     7.74104    7.02639   -1.25924
       O     8.51954    6.73086   -0.73613
      H1     8.12559    6.03837   -0.14620
       H     4.43266   11.45803   -4.62022
       O     4.80364   10.57886   -4.44640
      H1     4.07176   10.14499   -3.92806
       H     5.51664    4.88971   -6.40584
       O     6.15440    4.43336   -6.89456
      H1     6.55357    3.77134   -6.29253
       H     9.04689    8.13346   -5.62933
       O     8.73954    8.48802   -6.48583
      H1     7.79055    8.56928   -6.32176
       H    11.84607    6.06038   -3.30354
       O    12.27534    5.81742   -4.12300
      H1    12.58855    6.63387   -4.52140
       H     9.00522    5.50287   -6.38563
       O     9.38491    4.92083   -7.04982
      H1    10.31067    4.77868   -6.83023
       H     6.73097    5.78757   -8.03313
       O     6.94262    6.66177   -8.35688
      H1     6.15475    7.13970   -8.09966
       H     5.55199    9.69910   -7.77658
       O     5.67471   10.62101   -7.57756
      H1     4.77844   10.77923   -7.23754
       H     7.58794    2.42002   -3.74968
       O     7.65109    2.06176   -2.84658
      H1     6.99024    2.48345   -2.25294
       H     8.05922   11.91811   -1.84461
       O     7.82642   12.86764   -1.69545
      H1     8.04747   13.00585   -0.72123
       H     2.52023    5.94139   -4.67360
       O     1.80624    5.79504   -4.05848
      H1     1.03265    6.22404   -4.41443
       H     4.35206    8.17570   -9.34309
       O     4.44655    7.75488   -8.49118
      H1     3.78663    7.05793   -8.52811
       H     3.33732   14.03532   -3.53847
       O     3.74739   13.41070   -4.20683
      H1     3.09576   13.38922   -4.91363
       H     5.40724    7.92718   -5.83336
       O     6.15335    8.20259   -5.32399
      H1     5.83204    9.10820   -4.93086
       H     4.35048    5.54106   -1.29244
       O     4.91137    5.16341   -1.95336
      H1     5.59622    5.83137   -2.18860
       H     6.17935    7.58983   -2.30379
       O     6.64361    7.07952   -2.95440
      H1     6.38727    7.46802   -3.82400
       H     9.51026    6.88456    1.88752
       O    10.45741    6.78776    2.06325
      H1    11.11076    7.29698    1.61610
       H     4.12517   14.18282   -0.21211
       O     4.08185   13.89624   -1.13887
      H1     4.59649   13.08416   -1.26227
       H     8.11523    2.00390   -6.37017
       O     7.86424    2.59126   -5.59094
      H1     8.50818    3.29711   -5.53863
       H     1.20163    9.03652   -7.24527
       O     1.33761    9.38286   -8.12993
      H1     2.00349   10.08169   -7.94974
       H     3.01730    4.59619   -8.39044
       O     2.78733    5.53248   -8.42510
      H1     1.86120    5.57836   -8.13398
       H     0.95851    9.23838   -3.09303
       O     0.18497    8.65329   -3.32400
      H1    -0.45892    9.16418   -2.79512
       H     9.20240    6.86327   -3.96434
       O     9.64849    7.73307   -4.09267
      H1     9.12194    8.29221   -3.54763
       H     7.08218    4.22756    0.37642
       O     7.73636    4.73247    0.86669
      H1     8.56112    4.18943    0.89608
       H     9.16706    4.54423   -3.27940
       O     8.66006    5.04003   -3.90895
      H1     7.94183    5.43122   -3.43577

