141
frame 1 | Written by MDAnalysis XYZWriter (release 2.4.3)
       H     8.94521  -11.23697   10.89047
       O     9.52818  -11.94522   11.15608
      H1     8.97168  -12.64503   11.55728
       H    11.50897  -18.65333   12.02100
       O    11.98145  -19.22322   11.41982
      H1    11.73411  -18.84189   10.59369
       H     6.82425  -18.61773   12.30694
       O     7.22875  -19.02448   11.48962
      H1     7.31633  -19.97961   11.58845
       H     6.85881  -18.53791   17.97091
       O     7.62539  -18.28365   17.42410
      H1     7.38001  -17.52420   16.82415
       H     8.87380  -14.06684   14.27241
       O     9.58908  -14.66600   14.54699
      H1     9.09756  -15.34853   15.00669
       H    13.44503  -17.46053   15.03475
       O    13.31428  -17.86911   15.89214
      H1    12.48466  -17.53808   16.33072
       H     9.23054  -14.31141    6.30247
       O    10.13057  -14.46885    6.56883
      H1    10.58716  -14.48116    5.70595
       H    12.69391  -14.38005   15.54099
       O    11.84286  -14.42205   15.96087
      H1    11.06056  -14.45903   15.32347
       H    13.19949  -11.52423   15.74244
       O    12.76562  -10.68558   15.56038
      H1    12.25399  -10.74144   14.72363
       H     5.33888  -13.20813   11.58627
       O     5.66096  -14.14073   11.71805
      H1     5.96021  -14.47051   10.83918
       H    15.81138  -16.93008   12.71696
       O    16.42948  -17.11086   11.97622
      H1    17.34740  -16.87252   12.23495
       H    10.15425  -15.85905   13.15652
       O    10.41151  -16.76828   12.94113
      H1     9.86220  -17.30888   13.46753
       H    17.28986  -17.39702   15.10014
       O    17.90182  -18.16102   15.27833
      H1    17.38292  -18.98731   15.34102
       H    14.88081  -12.80695   17.07532
       O    15.18219  -12.19920   16.39163
      H1    15.21708  -11.36109   16.77874
       H    13.44533  -13.99353    9.51613
       O    13.39631  -13.13654    9.12487
      H1    12.47254  -12.88562    9.05328
       H    10.84647  -12.67301   19.29769
       O    10.77133  -12.38188   18.33910
      H1    10.89540  -13.18659   17.81210
       H     6.89374  -17.50385    8.72962
       O     7.56879  -17.48678    9.46187
      H1     7.30139  -18.01165   10.23619
       H     4.21728  -17.42705    7.69344
       O     4.37960  -17.36341    8.62214
      H1     3.65071  -16.88780    9.03577
       H     7.96458  -11.89989   18.56078
       O     7.66291  -11.84341   17.59690
      H1     8.50783  -11.78808   17.16719
       H    10.85850  -11.61471   12.46443
       O    11.39719  -11.45382   13.21494
      H1    12.22293  -11.92474   13.05816
       H     7.02125  -16.73711   14.91720
       O     7.26123  -16.15942   15.67188
      H1     6.52791  -15.62354   15.97854
       H     9.94620  -18.06662    7.32743
       O     9.20961  -18.67100    7.64130
      H1     8.85595  -18.22435    8.42787
       H    15.04673  -14.75620   14.13647
       O    14.19967  -14.35423   13.96423
      H1    14.43118  -13.55854   13.35370
       H     7.51122  -12.27816   13.15882
       O     7.77957  -13.16042   12.80798
      H1     7.04957  -13.55502   12.23513
       H    11.06614  -17.03993   17.92791
       O    11.14691  -16.84185   17.02034
      H1    11.33436  -15.89339   16.83210
       H    14.34469  -16.54613   11.01597
       O    14.14968  -15.96328   10.18925
      H1    15.06260  -15.83975    9.83022
       H     3.05293  -19.03057   12.12913
       O     3.47093  -18.33379   11.61555
      H1     3.99381  -18.88222   10.92530
       H    15.07989  -13.87819   18.77063
       O    14.29481  -13.99896   18.28322
      H1    13.58912  -14.28189   18.91501
       H     8.58946  -19.09488   14.99538
       O     9.36964  -18.53854   14.87794
      H1     9.50587  -18.18958   15.78493
       H    14.67106  -11.25368   12.24316
       O    14.30177  -12.12053   12.17037
      H1    14.58528  -12.37095   11.30392
       H    14.01010  -17.24818    8.58566
       O    13.78980  -17.86558    7.82298
      H1    13.72229  -18.74502    8.27306
       H    12.89321  -17.38900   12.56791
       O    13.69312  -17.05324   12.89341
      H1    13.66110  -16.12218   12.99661
       H    17.49017  -14.82695   10.01403
       O    16.88119  -15.42853    9.66230
      H1    16.91409  -16.12817   10.32377
       H     9.62035  -18.56874   20.08488
       O     8.66037  -18.64260   19.88260
      H1     8.58949  -18.50550   18.93432
       H     2.80558  -17.65637   15.79325
       O     2.58393  -17.49628   14.85964
      H1     3.12459  -16.77877   14.51716
       H     4.92068  -14.23873   15.25291
       O     4.78056  -14.49858   16.16927
      H1     3.83668  -14.52253   16.17077
       H    17.33614  -15.29365   15.40857
       O    16.56483  -15.74238   15.00714
      H1    16.00274  -15.83661   15.79154
       H     9.56160   -9.87438   15.36046
       O     9.23275  -10.44610   14.67649
      H1     9.98256  -10.83930   14.24783
       H     7.05891  -13.41854   17.83892
       O     6.57388  -14.25505   17.98310
      H1     5.70234  -14.06619   17.51562
       H     7.39252  -10.39944   13.89718
       O     6.75385  -10.41180   13.18576
      H1     5.88333  -10.64157   13.58076
       H     6.67176  -15.10680    8.72571
       O     7.24240  -14.87518    9.50960
      H1     7.62435  -15.71172    9.69287
       H     6.01069  -18.27853   14.19502
       O     6.37750  -17.53847   13.63301
      H1     5.66954  -16.87442   13.44801
       H    10.94162  -16.13562    7.07525
       O    11.23266  -17.03471    6.93340
      H1    12.04953  -17.18672    7.35416
       H    14.50402  -16.93751   16.85436
       O    15.12376  -16.45564   17.36609
      H1    14.71895  -15.65062   17.67186
       H     4.70226  -15.34434   12.57381
       O     4.19105  -16.01912   13.05021
      H1     4.13090  -16.89259   12.55702
       H     6.05397  -14.28872    6.73766
       O     5.52456  -14.85931    7.27718
      H1     5.90505  -15.75484    7.13406
       H    10.17044  -12.17744    9.41360
       O    10.67319  -12.23645    8.58360
      H1    10.36912  -12.96676    8.02675

