141
frame 0 | Written by MDAnalysis XYZWriter (release 2.4.3)
       H     8.20204  -11.01260   10.80171
       O     8.76839  -11.67326   10.39092
      H1     8.32338  -12.47501   10.70115
       H     5.44408  -10.59265    8.17829
       O     5.14899  -11.17030    8.86493
      H1     5.75732  -11.06009    9.56889
       H     8.79596  -14.68830   13.21702
       O     9.44172  -15.32698   13.62540
      H1     9.03815  -15.58625   14.47505
       H     9.14969   -9.56768    5.41566
       O     8.25996   -9.66045    5.11975
      H1     8.46732   -9.87410    4.19754
       H     6.39730  -10.41332   12.04477
       O     6.75261  -10.00145   11.21203
      H1     7.33371   -9.32780   11.60879
       H    -0.19705  -13.56574    5.44148
       O    -0.22876  -12.66340    5.66544
      H1     0.59293  -12.53199    6.12539
       H     7.31561   -6.51381    5.05579
       O     8.09214   -6.73572    5.57890
      H1     8.02045   -7.68349    5.44399
       H     9.78502  -14.11124    6.40175
       O    10.33280  -14.62194    7.04531
      H1    11.10794  -14.80720    6.51875
       H    -0.31867  -12.12682   12.62242
       O    -0.15941  -12.40563   11.74005
      H1    -0.92630  -12.08253   11.13849
       H     4.74595   -4.93382    8.84612
       O     5.41730   -5.08202    9.53148
      H1     4.94731   -5.25454   10.34736
       H     3.68225   -4.18257    7.43354
       O     3.75589   -5.12398    7.30171
      H1     2.83334   -5.44982    7.13278
       H     4.55237  -14.18654   11.23734
       O     5.31617  -14.73835   11.49866
      H1     5.75434  -14.80846   10.61961
       H    -1.74497   -9.77862   10.15797
       O    -1.23008   -8.94157   10.37032
      H1    -0.33136   -9.24838   10.16116
       H     4.51372  -12.73273    8.11635
       O     3.78653  -13.33445    7.84123
      H1     4.12882  -13.96420    7.26151
       H     6.67664   -5.62875    8.35848
       O     7.53070   -5.74019    7.92105
      H1     7.40645   -6.32335    7.17316
       H     7.32526  -17.12680    8.34727
       O     7.92409  -16.95258    9.06551
      H1     7.69418  -17.56015    9.77376
       H     4.96503   -9.31504    5.79412
       O     5.54454  -10.04593    6.07484
      H1     6.40208   -9.90976    5.59104
       H     6.36149   -6.35762   14.03395
       O     6.75518   -6.30489   13.19799
      H1     7.53758   -6.92149   13.19709
       H     3.27189  -17.43575    7.07798
       O     3.40431  -17.24695    8.01469
      H1     2.82311  -16.51223    8.28742
       H    10.98190  -12.00928   11.49373
       O    11.60750  -12.46575   12.09130
      H1    12.32128  -12.75207   11.48412
       H     3.23439  -10.40715   14.63121
       O     3.56885   -9.91467   13.89298
      H1     3.22042  -10.33226   13.09425
       H     9.13873   -8.91337   13.20091
       O     8.80302   -8.38713   12.46092
      H1     9.55779   -7.98069   12.06920
       H    -0.59478  -11.85915    8.03858
       O    -1.40281  -12.00882    8.59362
      H1    -1.95200  -12.63822    8.14829
       H     3.03856   -7.27086   10.50038
       O     2.59925   -7.32005    9.62369
      H1     1.98617   -6.53210    9.47638
       H     4.78818  -11.60605    5.09500
       O     4.20670  -12.19054    4.65408
      H1     4.58762  -12.46003    3.80918
       H     7.28550  -12.63144   12.74099
       O     7.59861  -13.49890   12.39997
      H1     6.77809  -13.90912   12.23436
       H     3.36043   -7.96898    5.67528
       O     3.69782   -8.54357    4.93584
      H1     2.95490   -9.11586    4.67113
       H     4.24597   -5.04382   12.10664
       O     4.47311   -5.94204   11.82304
      H1     5.35318   -6.13401   12.19798
       H     1.75501  -10.12714   10.04382
       O     1.19012   -9.56133    9.49334
      H1     1.51333   -8.63879    9.62341
       H     3.29275   -7.02254   12.79735
       O     2.81953   -7.33179   13.59204
      H1     3.20418   -8.21599   13.69665
       H     3.74065  -10.58660   10.53350
       O     3.03933  -10.77854   11.17428
      H1     2.62465  -11.62630   10.88185
       H     1.33501  -15.16194   13.75339
       O     1.47126  -14.23391   13.49456
      H1     0.54459  -14.00822   13.19000
       H     2.28752  -11.74528    7.53985
       O     1.36708  -11.61227    7.71685
      H1     1.26196  -10.68208    7.95593
       H     8.12199  -12.23389    5.31485
       O     8.36652  -13.19995    5.34865
      H1     8.77076  -13.32552    4.47908
       H     1.39104  -10.64245    4.00661
       O     2.30774  -10.65506    3.83178
      H1     2.86450  -11.24706    4.34743
       H     1.98510  -15.15947   10.44572
       O     1.66437  -16.07753   10.25493
      H1     2.13336  -16.62711   10.89517
       H     3.27259  -13.93911   14.26871
       O     4.03961  -13.67419   14.82136
      H1     3.74424  -13.04464   15.47168
       H     3.16403  -13.61915    4.31358
       O     2.80101  -14.50696    4.15683
      H1     3.02899  -14.71165    3.18851
       H     9.36848   -6.04397    8.45014
       O    10.27445   -5.90985    8.57979
      H1    10.56373   -6.50385    9.29710
       H     7.63630  -10.95423   14.16678
       O     6.79351  -11.09430   13.70684
      H1     6.12550  -11.03808   14.43875
       H     1.32535   -7.33792    6.89080
       O     2.24832   -7.45961    6.96968
      H1     2.48307   -7.36759    7.93461
       H     6.56177  -14.28266    8.39698
       O     6.87555  -14.45387    9.28917
      H1     7.47199  -15.18853    9.03949
       H     1.49379  -13.24071    9.92951
       O     2.38592  -13.52154   10.23204
      H1     2.86555  -13.45097    9.40352
       H     4.72744  -15.61551   13.18838
       O     4.50147  -16.45253   13.64684
      H1     3.97410  -16.99187   13.06316
       H     0.23677  -15.45398   10.88048
       O    -0.54047  -15.01612   11.25474
      H1    -0.14355  -14.14244   11.40614
       H     6.88112  -13.69685    6.22756
       O     6.15933  -14.12735    6.70126
      H1     6.18047  -15.05782    6.52981
       H    10.11602  -12.17930    9.15985
       O    11.00356  -12.45373    8.81891
      H1    10.86424  -13.08133    8.12182

