141
frame 5 | Written by MDAnalysis XYZWriter (release 2.4.3)
       H   -13.20502  -11.62531    9.35046
       O   -13.41899  -12.23830    8.60859
      H1   -13.63936  -11.74450    7.81391
       H   -11.03493  -14.06310   14.27131
       O   -11.56136  -14.58371   13.68247
      H1   -12.38783  -14.12787   13.44382
       H   -10.82634   -9.75090   16.82036
       O   -11.52505  -10.12051   17.42112
      H1   -12.12850   -9.41274   17.59661
       H    -6.61615   -7.98745   10.45571
       O    -7.39700   -8.14809    9.89870
      H1    -7.48849   -9.08088    9.86263
       H   -13.62266  -11.15197   15.23419
       O   -13.23489  -11.65199   15.99253
      H1   -12.69855  -10.99978   16.52174
       H   -13.19699   -7.45709    8.88483
       O   -13.77506   -8.10095    9.32697
      H1   -14.48727   -7.48448    9.59162
       H    -9.34836   -8.43260   16.34054
       O    -9.49584   -9.25619   15.90242
      H1    -9.54377   -9.16473   14.97539
       H    -6.99425  -12.40556    5.62497
       O    -6.74559  -12.18603    4.70393
      H1    -7.60005  -12.45399    4.20472
       H    -8.38747  -14.08805   15.93685
       O    -8.47618  -15.01859   16.01588
      H1    -7.91662  -15.26316   15.24204
       H    -8.02510  -11.10429   10.24764
       O    -7.10069  -11.24414    9.92526
      H1    -7.15563  -11.34565    8.97612
       H    -8.69648  -12.58986   12.06627
       O    -7.96536  -13.11891   12.25317
      H1    -7.44071  -13.10056   11.41029
       H   -10.29327  -10.91038   10.70237
       O    -9.99710  -11.51967   11.40100
      H1   -10.47015  -12.40258   11.22369
       H    -7.16474  -14.37142   12.89475
       O    -6.78344  -15.12220   13.50114
      H1    -6.21391  -15.71286   13.02065
       H   -10.65863  -14.85166    8.39129
       O    -9.79133  -15.27348    8.73215
      H1   -10.14123  -16.18096    8.90215
       H   -11.45860  -11.91923   15.13833
       O   -10.78291  -11.97282   14.48104
      H1   -11.02370  -11.32771   13.86575
       H   -14.91288  -13.67666    9.24379
       O   -15.75343  -14.17659    9.29477
      H1   -15.83495  -14.55105   10.22599
       H    -6.99617   -8.35777   14.97808
       O    -7.11207   -7.45910   14.67991
      H1    -7.58665   -7.51929   13.82074
       H   -14.96652  -12.23671   12.67412
       O   -14.95975  -11.36801   12.25087
      H1   -15.79066  -11.28752   11.75487
       H   -12.25942  -17.20080   11.48390
       O   -12.72817  -17.19734   12.38907
      H1   -12.62608  -16.32308   12.79009
       H   -11.22425  -11.58190    5.22124
       O   -11.25765  -11.90423    4.30704
      H1   -10.44691  -12.42381    4.17274
       H    -3.94025  -13.67649   11.90790
       O    -4.38273  -13.62669   12.77885
      H1    -5.11183  -14.25106   12.75548
       H   -14.71814  -13.91562   12.61302
       O   -14.17931  -13.66281   13.34705
      H1   -14.59077  -14.06803   14.11082
       H   -10.83461  -11.52553    7.00296
       O   -11.10556  -10.62249    6.69956
      H1   -10.34123  -10.17800    6.33850
       H    -7.27247  -18.53879    9.94028
       O    -8.15680  -18.33475    9.58861
      H1    -7.86775  -18.25223    8.64230
       H   -13.11667  -18.04681    7.33648
       O   -13.39308  -17.53223    8.05663
      H1   -14.05336  -18.02573    8.56250
       H   -14.03830   -8.25351   11.06796
       O   -14.63421   -8.33487   11.90395
      H1   -14.44837   -7.47702   12.31453
       H    -8.03256  -10.43048    5.49615
       O    -8.62612   -9.70457    5.42737
      H1    -8.96803   -9.59294    4.57050
       H   -13.49803  -10.94107   11.08996
       O   -12.84105  -10.57098   10.53306
      H1   -13.15838   -9.70655   10.20735
       H    -5.44300  -11.72234   12.98248
       O    -5.62140  -10.76925   12.99195
      H1    -6.00343  -10.59622   13.90587
       H    -9.51200  -12.01000   15.77700
       O    -8.99875  -12.30747   16.59700
      H1    -9.61920  -12.81998   17.12824
       H   -11.04322  -16.14195   14.89734
       O   -11.28131  -16.76705   15.61950
      H1   -10.65847  -17.38797   15.77552
       H    -7.93546   -6.99820   11.39116
       O    -8.43321   -6.93455   12.28511
      H1    -8.21468   -6.10709   12.71153
       H    -6.11029  -10.93666   16.25002
       O    -6.62057  -10.28520   15.80371
      H1    -7.53926  -10.40955   16.06219
       H   -10.39996  -14.57104   10.29846
       O   -10.87703  -13.98466   10.89132
      H1   -10.86737  -14.43009   11.73657
       H   -14.51736  -16.20962    7.64213
       O   -15.26037  -15.68424    7.21122
      H1   -15.57335  -15.09291    7.96597
       H    -7.88940  -15.29181    8.08826
       O    -6.96871  -15.41252    7.68692
      H1    -6.42869  -15.82460    8.36289
       H   -10.96947   -5.93795   11.79310
       O   -11.68337   -5.53416   11.35002
      H1   -12.32915   -5.46180   12.04164
       H    -9.54817   -8.49201   12.72439
       O    -9.91974   -9.24085   13.17451
      H1    -9.92681   -9.96550   12.50917
       H   -11.77135  -12.96021    7.91317
       O   -11.18852  -13.36834    7.28922
      H1   -11.77097  -13.89178    6.67131
       H   -14.47310   -9.68727    6.51183
       O   -13.87954  -10.45239    6.54379
      H1   -13.03461  -10.10650    6.75030
       H   -13.73665  -13.91824    5.15157
       O   -13.32834  -14.53139    5.75342
      H1   -14.05418  -14.85588    6.26223
       H   -10.66065  -18.05924    9.69632
       O   -11.27328  -17.32347    9.69735
      H1   -11.96970  -17.48453    9.06743
       H    -6.92252  -13.53036    7.51502
       O    -6.71110  -12.60852    7.38091
      H1    -5.76184  -12.68032    7.47447
       H    -7.53835   -7.85246    8.20500
       O    -7.31144   -7.79503    7.21630
      H1    -7.97698   -8.33185    6.76455
       H    -4.75012  -10.58483   11.04273
       O    -3.90832  -10.45888   10.64321
      H1    -3.99641   -9.66290   10.07328
       H   -16.94781  -14.98335   12.38054
       O   -16.11337  -15.08046   11.95150
      H1   -15.88134  -16.04890   11.98129
       H   -14.26749  -10.19697   13.57000
       O   -14.09780   -9.71679   14.40735
      H1   -13.77197   -8.86536   14.02437

