141
frame 11 | Written by MDAnalysis XYZWriter (release 2.4.3)
       H   -15.31494   14.43437    3.89038
       O   -15.43864   14.69592    4.83637
      H1   -15.92728   15.54514    4.73896
       H   -12.80085    9.91356    3.66175
       O   -13.60803   10.19513    3.23187
      H1   -13.31816   10.79513    2.57695
       H   -17.18973   13.80660    4.82492
       O   -17.90933   13.43632    4.33394
      H1   -17.46844   12.75363    3.77110
       H   -12.73838   15.18631    0.18308
       O   -12.73283   15.95249   -0.40319
      H1   -13.18615   15.57807   -1.17763
       H    -9.07617    8.54763    7.08778
       O    -8.38700    7.83129    7.26105
      H1    -8.80814    7.26863    7.98107
       H   -13.60703    9.82937    7.35463
       O   -12.97127    9.10813    7.50963
      H1   -12.93707    9.03263    8.45511
       H   -12.22105    6.97899    9.47140
       O   -12.17538    6.49910    8.64919
      H1   -12.39278    7.00421    7.87546
       H   -13.85633    9.48646    0.01411
       O   -13.10911    8.89135   -0.16233
      H1   -13.12736    8.28662    0.60916
       H   -14.73455    8.25148   -3.40747
       O   -13.83670    8.38362   -3.08621
      H1   -13.85045    8.95022   -2.27927
       H   -15.93524   10.89925    9.31061
       O   -15.49414   10.15850    8.83603
      H1   -15.84156    9.32327    9.12468
       H   -10.05036    4.04529    5.11737
       O    -9.84089    4.64630    4.35550
      H1    -8.92451    4.47925    4.00617
       H    -8.77487    5.12512    1.97526
       O    -8.81368    5.84068    1.31446
      H1    -9.00404    5.32401    0.53798
       H   -16.59884    5.06791    4.69283
       O   -17.29388    4.48699    4.95696
      H1   -16.90247    3.93269    5.62173
       H   -10.95172    9.87028    7.65590
       O   -10.21210    9.92925    7.07087
      H1   -10.49710    9.90587    6.13131
       H   -11.44411    6.95671    3.93335
       O   -10.74645    7.16055    3.32693
      H1   -10.11933    6.47292    3.48898
       H    -8.79228   12.06379    3.10289
       O    -8.61074   11.30433    3.72676
      H1    -8.59016   10.48115    3.24504
       H   -17.64727   12.19795    1.45557
       O   -16.92797   12.11818    2.03703
      H1   -16.81655   11.14161    2.08300
       H   -14.38418   13.75840   -2.27378
       O   -13.98521   12.97457   -1.86419
      H1   -14.65376   12.29903   -1.68692
       H   -18.96605   10.02823    1.85728
       O   -19.10744    9.12608    1.42096
      H1   -20.09270    8.99386    1.55405
       H   -12.51913    7.89150    6.09792
       O   -12.51017    7.21308    5.34435
      H1   -13.52400    7.04805    5.29162
       H   -18.04932    5.95998    5.90784
       O   -18.51429    6.59472    6.45895
      H1   -18.02504    7.42103    6.35263
       H   -11.51704   11.06148   -1.67488
       O   -11.79955   11.43229   -2.51929
      H1   -12.47124   12.10925   -2.27884
       H   -15.78010   10.27677    0.54269
       O   -15.40845   10.73558   -0.21414
      H1   -16.06865   10.71263   -0.92719
       H   -12.95959    3.42911    3.39051
       O   -13.79426    3.78496    3.08430
      H1   -14.02984    3.16430    2.36340
       H    -6.80267    7.66307    4.53067
       O    -7.45883    6.98715    4.67852
      H1    -7.86350    7.14501    5.60850
       H   -16.02610   14.74677    1.15660
       O   -15.49955   14.43479    1.87932
      H1   -15.68565   13.48883    1.87051
       H   -18.07616   12.10083    5.56769
       O   -18.13682   11.25476    6.02148
      H1   -17.89861   11.48103    6.92396
       H   -10.13634   13.55353    4.12308
       O    -9.63400   13.76214    3.29009
      H1   -10.29793   13.85893    2.62755
       H   -11.15343   13.19188    6.41737
       O   -10.50516   13.79657    5.94535
      H1    -9.78556   13.47621    6.52999
       H   -10.25232   10.52297    4.20849
       O   -10.78714    9.85315    4.57890
      H1   -10.55487    9.03697    4.07074
       H    -9.43096    8.68428    1.39031
       O    -8.75908    9.36935    1.47514
      H1    -7.96222    9.08205    1.01102
       H   -14.38216    5.40161    4.36775
       O   -14.86417    6.01427    4.92453
      H1   -14.96859    5.47340    5.71041
       H   -12.45874   11.65049    0.82388
       O   -13.22393   11.99080    1.31112
      H1   -13.97437   11.73550    0.80156
       H   -14.02275   13.46931    6.23704
       O   -13.58585   12.77075    6.71617
      H1   -14.14449   11.98579    6.48003
       H   -15.57958    9.23689    2.75397
       O   -16.37819    9.38033    2.28046
      H1   -16.96153    8.62596    2.20867
       H   -17.11760    8.83023    4.99340
       O   -16.96794    8.84629    5.91617
      H1   -17.29539    9.75539    6.09082
       H   -10.70152    3.80995    2.90291
       O   -11.06237    3.35349    2.11405
      H1   -10.46788    2.62380    1.92159
       H   -15.45381    9.84519    5.87981
       O   -14.75809   10.55797    5.84733
      H1   -14.35193   10.38551    4.98444
       H   -12.87194   15.59274    6.55060
       O   -12.95650   16.12730    5.70508
      H1   -13.27636   15.51032    5.08277
       H    -9.42783   12.53808    8.59857
       O    -9.07342   12.39287    7.69781
      H1    -9.52561   11.54487    7.36455
       H    -8.11448   11.37823   -0.64496
       O    -8.59004   10.78730   -1.27165
      H1    -9.35018   10.53473   -0.71086
       H   -10.15010   10.29105    0.58923
       O   -10.87059   10.63971    0.15256
      H1   -11.55207    9.95524    0.07838
       H   -13.33831    5.48970    1.17691
       O   -12.61094    6.14124    1.13930
      H1   -12.10890    6.01531    1.98276
       H   -10.52627    6.06420   -0.95183
       O   -11.21549    6.68596   -1.14598
      H1   -11.81591    6.74091   -0.41125
       H   -16.80472    5.80990    1.45818
       O   -17.37870    6.44045    1.87491
      H1   -18.15232    6.60428    1.28459
       H   -12.32874   13.40871    1.23477
       O   -11.66274   14.14317    1.44464
      H1   -11.12106   14.26051    0.58530
       H   -14.32026   13.45613    9.75110
       O   -13.44422   13.18728    9.34189
      H1   -13.57300   13.04419    8.44411

