141
frame 9 | Written by MDAnalysis XYZWriter (release 2.4.3)
       H     7.15550   -6.36864  -12.46024
       O     8.08116   -6.28091  -12.24511
      H1     8.08461   -6.04464  -11.34170
       H     8.76157   -5.52144  -15.26222
       O     8.22064   -4.88296  -15.76156
      H1     7.68993   -4.48010  -15.06658
       H    11.71033   -9.55208  -11.42694
       O    11.77997   -8.94166  -10.71951
      H1    12.24495   -8.10321  -11.02384
       H     3.56565   -4.47855   -9.31638
       O     3.02223   -5.01870   -9.95964
      H1     3.59084   -5.79989   -9.97121
       H     8.39237    1.44542  -16.00487
       O     7.72699    1.68588  -16.66389
      H1     8.19179    2.19965  -17.28632
       H    12.90739   -1.96438   -9.16925
       O    12.05292   -1.48472   -8.92087
      H1    12.03799   -0.71688   -9.55618
       H    13.18811    0.92419   -6.85167
       O    13.53329    0.51284   -7.66142
      H1    12.96402   -0.20027   -7.72605
       H    12.06605    3.41742  -12.75546
       O    12.58030    3.82824  -12.02197
      H1    13.42477    4.09433  -12.39344
       H    10.27355   -0.90169  -17.61017
       O    10.97427   -0.89548  -16.91917
      H1    10.78911   -1.61902  -16.33051
       H     5.34388   -3.10215   -8.39341
       O     4.48182   -3.45462   -8.12531
      H1     3.77269   -2.84299   -8.47691
       H    10.04562    1.49620   -7.47516
       O     9.90177    0.74873   -8.05495
      H1     9.12031    1.06192   -8.60374
       H     5.20144   -0.09128   -9.59940
       O     5.73545    0.06052  -10.38257
      H1     5.26645    0.78350  -10.86941
       H     7.09878   -5.91386   -7.95863
       O     6.46645   -5.84626   -7.25765
      H1     6.25901   -4.90604   -7.11478
       H    11.18870   -4.59157   -9.57745
       O    11.06719   -4.83219  -10.55296
      H1    10.67980   -3.95727  -10.88067
       H    10.31907    0.24170  -15.64101
       O     9.69814    0.84781  -15.13939
      H1     9.41618    0.25462  -14.46345
       H    14.20360   -3.09127  -14.97772
       O    14.34698   -2.13286  -15.21001
      H1    15.15816   -2.19784  -15.72121
       H    10.89219   -2.48037  -12.01808
       O    11.35092   -2.57811  -12.83332
      H1    12.31289   -2.45308  -12.62445
       H     7.01222   -4.49788  -13.26904
       O     6.61015   -3.74878  -13.73434
      H1     5.71486   -4.08907  -13.95626
       H     8.58998   -5.67915   -5.45892
       O     9.45702   -6.12404   -5.63419
      H1     9.28356   -6.68389   -6.40412
       H     7.76143   -2.35491   -8.46887
       O     7.02776   -2.84462   -8.82400
      H1     6.82433   -2.45730   -9.67422
       H    14.30077   -2.51220  -10.68999
       O    14.38071   -2.63485   -9.71941
      H1    14.20475   -3.56614   -9.59697
       H     7.02249   -1.91780   -5.30135
       O     7.95191   -2.17714   -5.06507
      H1     8.18678   -1.67272   -4.23571
       H     8.53152    2.26259  -10.89481
       O     9.14138    2.12336  -11.59799
      H1     8.94966    2.78531  -12.26378
       H     6.83932   -0.25784  -14.38740
       O     6.24123   -0.10292  -15.13928
      H1     6.81280    0.56406  -15.60271
       H     9.61278   -8.66626   -7.36516
       O     9.11917   -7.94062   -7.73293
      H1     9.79354   -7.50435   -8.22755
       H     7.03129    1.41500   -9.21246
       O     7.73899    2.06186   -9.29061
      H1     7.46060    2.81734   -8.72976
       H    12.90828    1.62652  -14.11135
       O    13.01082    1.29764  -13.19775
      H1    13.04262    2.14403  -12.66303
       H    13.32390   -5.64953   -8.19189
       O    14.18171   -5.06975   -8.25541
      H1    14.00218   -4.46038   -7.51046
       H    13.40860   -2.14929   -5.73077
       O    14.00124   -2.20191   -6.57588
      H1    13.99002   -1.28497   -6.87574
       H     7.71760   -0.60970  -12.13456
       O     8.29795   -0.15441  -12.75520
      H1     8.61588    0.72135  -12.30540
       H    12.31555    2.63475  -15.89097
       O    11.74656    2.82054  -15.13622
      H1    11.01813    2.14381  -15.09957
       H     9.41170   -2.11419  -10.00161
       O     9.45257   -2.31648  -10.92445
      H1     8.56530   -2.25362  -11.30970
       H     9.54826   -0.86076   -7.55705
       O     9.31917   -1.80859   -7.49705
      H1     8.91588   -1.88399   -6.63581
       H    11.50296   -4.27702   -7.04206
       O    11.23499   -4.12563   -7.96881
      H1    11.32604   -3.20894   -8.16046
       H    10.44816   -2.60683  -14.27126
       O     9.90083   -2.51064  -15.11878
      H1     9.49546   -3.40491  -15.27898
       H     4.75033   -5.47994  -12.09969
       O     5.30935   -6.05003  -12.57859
      H1     4.84388   -6.91988  -12.46111
       H     5.07279   -2.47898   -6.26214
       O     5.41267   -1.65909   -5.79777
      H1     4.92832   -1.80319   -4.97984
       H    10.62919   -6.84225  -14.19745
       O     9.70837   -6.68519  -14.33629
      H1     9.39871   -6.42370  -13.51868
       H    13.84717   -6.24948  -11.47949
       O    12.97511   -6.70717  -11.51215
      H1    12.28173   -6.03822  -11.27218
       H    14.05984   -1.84941  -13.54578
       O    14.17146   -1.68449  -12.61033
      H1    14.31004   -0.77944  -12.55402
       H    11.56742    0.94603  -11.55134
       O    11.61687    0.83709  -10.60669
      H1    10.90989    1.45680  -10.35293
       H    13.32677    3.40345  -10.44017
       O    13.66884    3.44844   -9.51528
      H1    13.40120    2.57499   -9.18663
       H     6.01257   -1.46959  -11.31455
       O     6.70711   -2.12360  -11.50561
      H1     6.60095   -2.50171  -12.37796
       H     3.55711   -2.12270  -15.01767
       O     3.92430   -2.94147  -14.58361
      H1     3.60058   -2.90675  -13.65948
       H    11.36800   -3.63499   -4.75264
       O    11.80287   -4.38318   -5.13881
      H1    11.04079   -5.04920   -5.26780
       H     9.36969   -5.15425   -9.78813
       O     8.45574   -5.37144   -9.55746
      H1     8.07172   -4.51396   -9.28467
       H     4.71781   -0.66461   -7.09821
       O     4.36728   -0.15887   -7.83931
      H1     4.06477    0.69529   -7.43391

