141
frame 7 | Written by MDAnalysis XYZWriter (release 2.4.3)
       H    -2.11741   -8.23969    0.28896
       O    -2.84704   -8.60457    0.80507
      H1    -3.00266   -8.11250    1.63450
       H     4.92181   -7.19996    2.87614
       O     5.19201   -6.64778    2.11811
      H1     4.57061   -6.98997    1.46918
       H     0.69949   -8.58795    1.87067
       O     0.64156   -8.40673    0.91795
      H1     1.48587   -7.95478    0.67285
       H    -4.77017   -8.08804   -1.73199
       O    -4.55762   -9.00968   -1.62880
      H1    -3.90591   -9.00423   -0.94952
       H     1.10588  -12.02368   -6.24648
       O     0.69712  -12.71771   -6.74503
      H1    -0.19507  -12.78804   -6.38369
       H     8.48041  -11.96847   -0.49531
       O     7.67622  -11.47837   -0.69237
      H1     7.92787  -10.96546   -1.45048
       H    -0.18350   -8.68974   -2.42280
       O     0.49680   -9.12718   -2.92981
      H1     0.24647   -9.16442   -3.81231
       H     1.21038   -7.41711   -3.48364
       O     1.21970   -6.51807   -3.83080
      H1     1.94400   -6.57743   -4.41400
       H    -0.50657  -16.39718    2.55356
       O     0.44237  -16.68855    2.36351
      H1     0.95501  -15.82485    2.30492
       H     2.76967  -10.88719   -4.83014
       O     1.78578  -10.88282   -5.00454
      H1     1.37734  -11.46118   -4.36312
       H     1.95929  -14.29741    1.21993
       O     2.14469  -14.33470    2.12181
      H1     2.99225  -14.81114    2.11918
       H     3.65024  -14.71415   -2.83252
       O     3.13900  -14.15661   -3.43158
      H1     2.39121  -14.70596   -3.80846
       H     4.59257  -10.63956    2.06299
       O     5.52204  -10.97580    1.97703
      H1     6.10579  -10.21707    1.88684
       H     2.81070  -10.66048    3.50194
       O     3.05301   -9.91763    2.95076
      H1     2.40552   -9.15335    3.00775
       H    -1.83180  -14.54084   -6.03479
       O    -2.17161  -13.62451   -5.85859
      H1    -2.99868  -13.76740   -5.30729
       H    -1.01466  -13.20414   -4.37388
       O    -0.35473  -13.20082   -3.65150
      H1    -0.85150  -13.50762   -2.86097
       H     1.96931   -4.41348   -1.38815
       O     1.94694   -5.37584   -1.46243
      H1     1.50998   -5.61914   -2.28645
       H     1.76588  -15.65284   -0.43491
       O     1.54521  -14.67132   -0.40410
      H1     2.24100  -14.13118   -0.81214
       H    -3.74570  -12.43859   -3.68994
       O    -4.05762  -13.35144   -3.86259
      H1    -4.72492  -13.24487   -4.52914
       H     8.42729   -8.73029    1.07227
       O     7.81462   -9.38199    1.28590
      H1     7.76803   -9.99693    0.50464
       H     4.79671  -16.25227    1.59832
       O     4.60752  -15.46142    2.17053
      H1     4.90722  -14.61752    1.78121
       H     6.91016  -14.28722    0.23644
       O     6.13927  -13.80113    0.32578
      H1     6.26580  -12.94041   -0.17465
       H     5.13458  -11.38726   -5.19515
       O     4.64669  -12.19351   -5.26929
      H1     4.71480  -12.87779   -4.57322
       H     7.22480  -15.83995   -2.97212
       O     6.47599  -16.43638   -3.09286
      H1     5.93663  -16.17356   -2.41475
       H     4.33402   -8.08960   -5.56998
       O     3.56817   -7.44567   -5.58015
      H1     2.96458   -7.86358   -6.24378
       H    -2.01770   -7.05147   -1.46522
       O    -1.33414   -7.69547   -1.10929
      H1    -0.78156   -7.17854   -0.59262
       H     2.01866   -9.23183   -7.79984
       O     1.64964   -8.88362   -7.00952
      H1     1.53077   -9.63433   -6.45728
       H     0.21733  -10.27104   -1.34848
       O     0.20543  -10.97227   -0.70258
      H1     0.49450  -10.50138    0.05405
       H    -1.87916  -16.07890   -0.54907
       O    -2.57204  -16.56039   -0.10206
      H1    -2.39740  -17.41615   -0.51128
       H    -2.53784  -10.06634    1.95829
       O    -2.52451  -10.78216    2.55112
      H1    -3.34115  -11.27935    2.59880
       H    -2.39771  -15.78501    1.86396
       O    -2.25218  -15.76510    2.79769
      H1    -1.90913  -14.91720    3.10040
       H     3.96178   -6.08631   -3.25273
       O     4.79570   -5.57968   -3.29580
      H1     5.29666   -5.89036   -4.05599
       H     4.12159  -15.80544   -0.69577
       O     4.68410  -15.34344   -1.33313
      H1     5.15438  -14.63580   -0.82979
       H    -1.63118  -13.51947   -0.92748
       O    -1.13185  -14.27602   -1.18862
      H1    -0.24498  -14.22880   -0.76069
       H     0.01628  -16.49141   -4.03633
       O     0.44391  -15.67742   -4.25039
      H1     0.01617  -15.08587   -3.71393
       H     3.93340   -8.38090   -0.52457
       O     3.92535   -7.45413   -0.35443
      H1     3.38942   -6.89368   -0.94080
       H     0.35705  -10.66961    4.02318
       O     0.31240  -11.39270    3.33589
      H1    -0.47936  -11.17190    2.85440
       H     3.41322  -13.26978    4.59768
       O     3.10624  -12.55643    4.03106
      H1     2.53153  -12.93243    3.31456
       H     1.58415  -17.50356    0.80021
       O     2.36275  -17.29308    0.14520
      H1     2.71327  -18.17792   -0.05231
       H     2.59772  -14.81682   -7.70656
       O     2.31490  -15.22265   -6.88907
      H1     1.75837  -14.51076   -6.47698
       H     1.77547  -11.85172   -1.29156
       O     2.68639  -12.18024   -1.26303
      H1     2.79874  -12.72178   -2.02613
       H     6.38029   -9.81032   -6.42192
       O     5.69253   -9.69966   -5.76448
      H1     6.19950   -9.41806   -5.02471
       H     6.39300   -7.47346   -3.25833
       O     6.41299   -8.47189   -3.27799
      H1     5.70129   -8.76295   -2.73032
       H    -1.86276   -9.82311   -4.37418
       O    -1.47398   -9.46066   -5.20426
      H1    -2.27939   -9.08389   -5.62713
       H    -3.66785  -10.43717   -2.94841
       O    -2.94501  -11.00074   -3.16418
      H1    -2.59697  -11.21631   -2.23954
       H    -3.04920  -11.67523    0.24465
       O    -2.39350  -11.88512   -0.37278
      H1    -1.56202  -11.44435   -0.09960
       H     5.05588  -10.40386    0.29307
       O     4.64913  -10.16320   -0.58805
      H1     4.05493  -10.94518   -0.77591

