141
frame 11 | Written by MDAnalysis XYZWriter (release 2.4.3)
       H    18.47008    4.89415    5.72108
       O    18.09005    4.11432    6.08467
      H1    17.46594    4.44909    6.69808
       H    18.15650    6.93991    8.25476
       O    18.66076    6.14337    8.49524
      H1    19.32583    6.04123    7.83304
       H     7.24839    9.69842   10.09134
       O     7.73189    8.90690   10.19928
      H1     7.88511    8.50553    9.32597
       H    16.72344    7.09038   11.94602
       O    15.76630    7.17559   11.99346
      H1    15.38079    6.30828   12.28122
       H    15.78229    3.18785    8.45290
       O    15.63552    3.75725    7.70814
      H1    15.16872    4.48275    8.09713
       H     7.37168   10.00870    4.73066
       O     8.04670    9.46509    4.27920
      H1     7.58142    9.22829    3.41269
       H    10.99100    9.66336   11.48951
       O    11.43191   10.45813   11.82833
      H1    11.87341   10.87534   11.07076
       H    19.08240    7.59371   11.00452
       O    18.56752    6.82342   11.16717
      H1    18.56764    6.37885   10.22198
       H    13.78386    1.86079   13.03288
       O    12.95567    2.31508   12.91598
      H1    12.43032    1.63699   12.46440
       H    14.20343    5.46875    5.36857
       O    13.81750    4.67657    5.80599
      H1    14.46420    4.24037    6.39898
       H    12.92225   12.27193    9.47989
       O    12.01577   12.13150    9.19588
      H1    11.47486   12.72398    9.74849
       H    12.19474    4.72641    6.58146
       O    11.45756    4.49428    7.19110
      H1    10.96674    3.80790    6.71089
       H     7.52499    7.79011    4.80271
       O     7.53487    6.95953    5.28951
      H1     8.44171    6.55824    5.21952
       H    14.57887   12.26534   11.63470
       O    15.36687   11.66475   11.43272
      H1    15.44084   11.56811   10.41288
       H    14.08513    9.67215   13.73996
       O    13.15889    9.82047   14.00427
      H1    12.70774    9.80468   13.14399
       H    12.59562    8.00811    6.93848
       O    13.32596    8.43764    6.44654
      H1    13.05760    9.34295    6.30785
       H    14.53090    3.47946    4.91150
       O    14.90538    2.72597    4.36076
      H1    14.22361    2.07158    4.47768
       H    17.30938    8.15078    4.86496
       O    16.74299    8.52489    4.19486
      H1    15.99236    7.88489    4.18805
       H     9.61293    5.40979    3.90037
       O     9.95946    5.79436    4.70366
      H1    10.06234    5.04795    5.35473
       H    16.43925    1.39205    9.49003
       O    15.75045    2.04105    9.76056
      H1    14.88256    1.59320    9.55459
       H     9.26246    2.76045    7.13175
       O     9.61205    2.68080    6.24326
      H1    10.07097    1.85587    6.16379
       H     6.74025    7.64247   12.99178
       O     6.37671    7.13123   12.23672
      H1     6.74061    7.57391   11.43789
       H    16.22562    8.59062    7.95755
       O    16.46379    7.76647    8.36021
      H1    15.63624    7.32554    8.58327
       H     7.29271    5.55153    3.89779
       O     6.82623    4.95924    3.29172
      H1     7.47123    4.92410    2.51500
       H     7.38669    7.31430    6.81526
       O     6.93681    7.67184    7.63154
      H1     6.84216    8.64783    7.47254
       H    10.98624   10.46457    4.84653
       O    10.69250   10.00024    4.00925
      H1     9.74191    9.84227    4.17145
       H     6.26623    5.92329    8.25444
       O     6.20981    5.09773    8.73536
      H1     5.56202    5.30136    9.43452
       H    13.90695    7.17568    3.31519
       O    14.13781    6.98103    4.22779
      H1    13.75064    7.63708    4.83075
       H    13.56122   13.60375    5.77226
       O    14.10871   12.85019    6.07247
      H1    14.11062   12.90871    7.07945
       H    10.86061    7.51448   10.93629
       O    10.68587    8.35045   10.44208
      H1     9.75024    8.54965   10.56885
       H    15.57338   12.91102    8.38835
       O    15.12909   12.09122    8.61282
      H1    15.42889   11.49354    7.95321
       H     9.25834   12.05679   13.36984
       O     9.39583   12.15190   12.44321
      H1    10.13958   11.46111   12.41885
       H    15.29997    9.29874    6.34428
       O    15.52992   10.15543    6.73027
      H1    16.33660   10.45028    6.26289
       H    11.69631    7.72752    8.92307
       O    12.22405    7.12985    8.34695
      H1    11.68771    6.34478    8.10310
       H    11.66936   11.08255    7.17791
       O    12.12620   10.87088    6.34693
      H1    12.75504   11.55813    6.12581
       H     8.03514   10.79423    7.28761
       O     7.21350   10.69984    7.70260
      H1     7.20930   11.12441    8.56722
       H    14.26418    5.26205   13.61864
       O    14.02842    5.12773   12.71660
      H1    13.83334    4.17096   12.67386
       H    13.00246    4.69013    9.69953
       O    12.33251    3.94799    9.83471
      H1    11.80169    4.08612    9.03573
       H    10.55531    8.19854    2.82441
       O    10.81116    7.71686    2.00249
      H1    11.73529    7.95175    1.83422
       H     9.77695    5.39721   13.40745
       O     9.12924    5.21162   14.10871
      H1     8.29207    5.14448   13.68651
       H    11.67003    7.44799   15.02569
       O    12.40938    7.30209   14.40867
      H1    12.65938    8.23243   14.17813
       H    11.27834    5.17267   11.11360
       O    11.15319    5.75609   11.91532
      H1    12.03673    5.63008   12.26891
       H    12.62045    1.86868    9.78768
       O    13.13362    1.17957    9.37645
      H1    12.67596    0.55998    8.79183
       H    13.54627    6.61167    9.53738
       O    14.28717    6.00463    9.63065
      H1    14.84724    6.36665   10.35364
       H     8.55728    2.52000    9.63616
       O     8.61920    1.76257    9.09730
      H1     9.00811    1.06715    9.60359
       H    15.74058    8.43317   12.99150
       O    15.71054    9.05729   13.76358
      H1    16.25321    9.79635   13.45272
       H     7.90754    4.75490    9.76473
       O     8.57103    4.23460   10.23012
      H1     8.06812    4.17825   11.03516

