144
frame 7 | Written by MDAnalysis XYZWriter (release 2.4.3)
       H    18.09961  -10.77395   13.01132
       O    18.70991  -11.53352   12.71769
      H1    18.46502  -12.23724   13.29999
       H    15.26301  -10.62013   13.94433
       O    15.30191  -11.27615   14.57956
      H1    14.58538  -10.98877   15.20852
       H    12.21173  -16.68727   12.25000
       O    12.50622  -16.24879   11.44038
      H1    11.83515  -16.54922   10.76688
       H    15.83702  -15.17467   17.48067
       O    16.09739  -15.97738   17.84307
      H1    17.05623  -16.00848   17.74794
       H    15.58194  -18.91333   15.11607
       O    14.75300  -18.56527   14.88484
      H1    14.40031  -19.15040   14.20817
       H    12.85507  -13.57468   15.11523
       O    12.03271  -13.34968   15.59688
      H1    11.34181  -13.96309   15.28853
       H    18.53973  -15.15058   16.55905
       O    18.66140  -15.83454   17.25969
      H1    19.12653  -16.55297   16.84880
       H    18.44762  -12.14309    4.35856
       O    17.78701  -11.59588    4.76652
      H1    17.82588  -10.75740    4.24963
       H    18.17183  -11.51423    8.10311
       O    17.70060  -12.18015    8.65686
      H1    18.39213  -12.69932    9.07409
       H    15.01350  -12.74934    5.73935
       O    15.35677  -12.82410    4.88116
      H1    16.28311  -12.45977    4.86128
       H    16.36618  -15.97673   13.47261
       O    16.97256  -15.95526   12.73059
      H1    17.81768  -16.41439   12.92376
       H    17.58322  -11.69166   11.47036
       O    16.80406  -11.51293   10.95397
      H1    17.10126  -11.56449   10.05866
       H    18.53726  -18.54193    1.64222
       O    18.11598  -18.91455    2.44116
      H1    17.66719  -19.72320    2.18152
       H    16.61328  -17.96668   17.64116
       O    16.72568  -18.43119   16.82770
      H1    16.66775  -19.38116   16.92201
       H    14.86225  -12.36108   10.03052
       O    14.05993  -11.98467    9.70339
      H1    13.38372  -12.56711   10.12952
       H    18.23591  -18.15680   19.43809
       O    18.86456  -18.67658   18.93581
      H1    19.69672  -18.36713   19.22210
       H    14.43311   -7.68525    9.00817
       O    14.49859   -8.56057    8.53284
      H1    14.02941   -9.10190    9.16149
       H    14.89989  -12.99871   17.72559
       O    15.55838  -13.34145   17.16372
      H1    16.21762  -12.67193   16.96044
       H    18.10953  -12.18208   15.73313
       O    17.61120  -11.47741   16.19372
      H1    16.83125  -11.27019   15.68410
       H    16.57818  -13.02535   14.42491
       O    17.33220  -13.50593   14.14165
      H1    16.98537  -14.18400   13.50307
       H    11.64161  -11.27678   10.45429
       O    11.62109  -10.73046   11.23474
      H1    12.56492  -10.54980   11.35331
       H    16.41183  -17.48449   12.05293
       O    16.39955  -18.42537   11.73037
      H1    15.52565  -18.78009   11.78999
       H    19.83675  -10.26893    7.11104
       O    18.85669  -10.36287    6.98060
      H1    18.83004  -10.89063    6.21929
       H    14.08688  -13.10405    7.40916
       O    13.73926  -13.75716    6.79940
      H1    14.11858  -14.56068    7.12763
       H    14.37840  -14.48492   14.31463
       O    14.01412  -13.66516   13.93991
      H1    14.60446  -12.96378   14.29389
       H    17.36082  -17.22807    9.06165
       O    17.93939  -17.83687    9.58568
      H1    17.28374  -18.16882   10.23951
       H    11.95320  -14.58845    9.33471
       O    11.81228  -14.92808    8.42869
      H1    12.48259  -14.38247    7.91704
       H    17.77315  -15.51455    4.48497
       O    16.89696  -15.50896    4.07432
      H1    16.34641  -15.15086    4.77961
       H    19.84888   -9.60815   16.26357
       O    19.09100   -9.41468   16.83190
      H1    18.45542  -10.12555   16.59025
       H    13.86382   -8.93355   13.15305
       O    14.11632   -9.47947   12.41352
      H1    15.01263   -9.20136   12.15673
       H    18.45263  -18.61931   15.95633
       O    19.14903  -18.85272   15.27092
      H1    19.83754  -19.37428   15.73475
       H    12.82570  -16.41500    8.22934
       O    13.57204  -16.96596    8.08427
      H1    13.49918  -17.63761    8.76107
       H    12.56971  -14.62616   11.23929
       O    12.39334  -13.71248   10.96574
      H1    11.97009  -13.40921   11.81298
       H    19.39339  -19.15546    5.66319
       O    18.45765  -18.91093    5.53392
      H1    18.31450  -19.30358    4.62251
       H    16.39920  -13.27233   10.59030
       O    16.22057  -14.24752   10.49101
      H1    15.59818  -14.63092   11.10699
       H    14.27058  -18.61866    5.46452
       O    14.33223  -18.84224    6.38727
      H1    13.83157  -18.14876    6.86185
       H    18.66286   -8.56600    6.96823
       O    18.54371   -7.62652    7.06550
      H1    19.38848   -7.21596    6.75919
       H    17.44280  -16.78352    1.33188
       O    16.74341  -16.11707    1.38216
      H1    16.67988  -15.83056    2.29806
       H    19.46636  -15.58435   10.49003
       O    19.10761  -14.79282   10.91453
      H1    18.17786  -14.73149   10.62635
       H    15.80523  -16.04441   15.63081
       O    15.21985  -15.95108   14.90050
      H1    14.79705  -16.86483   14.90007
       H    17.63755  -15.79621    7.22771
       O    18.39419  -16.36592    7.09540
      H1    18.01000  -17.17440    6.71108
       H    17.95497   -8.61379   13.89932
       O    17.45602   -9.28450   13.34022
      H1    17.34356   -8.84065   12.48599
       H    13.53417  -17.47882    3.46135
       O    14.35057  -17.89932    3.73357
      H1    15.13552  -17.25233    3.78474
       H    15.97909  -14.90489    8.74049
       O    15.88710  -15.41302    7.91549
      H1    15.15901  -16.00522    8.06527
       H    16.65562   -9.87040   10.80781
       O    16.52621   -8.84867   10.76622
      H1    15.79352   -8.68822   10.09295
       H    18.85757   -8.06031    8.92459
       O    18.98701   -8.03132    9.89407
      H1    18.25244   -8.55240   10.24810
       H    14.12315  -19.12803   16.70417
       O    13.59800  -18.94034   17.50108
      H1    12.78877  -18.57278   17.26611
       H    11.85424  -19.72057   12.95190
       O    11.11290  -19.20897   12.61745
      H1    11.15765  -19.28006   11.65678

