144
frame 6 | Written by MDAnalysis XYZWriter (release 2.4.3)
       H    -6.48757  -12.61378  -14.58027
       O    -5.87013  -13.36006  -14.71752
      H1    -5.21873  -13.17327  -15.38730
       H     0.68227  -18.32752  -16.59072
       O     1.45100  -18.79819  -16.82632
      H1     1.91234  -18.89681  -15.96592
       H    -0.41061   -9.16519  -11.22475
       O     0.49255   -9.16697  -11.53799
      H1     0.45387   -9.56066  -12.43293
       H     5.44330  -15.55102  -17.07976
       O     5.76814  -14.80160  -16.55589
      H1     6.70554  -14.69332  -16.60689
       H     6.38389  -13.74147  -12.74444
       O     5.44443  -13.66995  -12.54190
      H1     5.16403  -12.75052  -12.71125
       H    -3.96151  -17.72382  -13.56328
       O    -3.85089  -16.76933  -13.44784
      H1    -2.88604  -16.79739  -13.16241
       H     3.44704  -17.11851  -17.98797
       O     4.44391  -17.25665  -17.82816
      H1     4.45953  -17.99272  -17.22083
       H    -2.45236  -10.74791  -16.98251
       O    -1.77011  -11.44881  -17.01563
      H1    -1.69451  -11.80155  -17.89888
       H     5.14558  -11.62029  -14.62042
       O     5.18106  -11.69533  -15.54103
      H1     5.49137  -12.56068  -15.73301
       H     1.06666   -7.50468  -11.30762
       O     1.04729   -6.55126  -11.01819
      H1     1.77647   -6.41457  -10.44239
       H    -0.50882  -16.85403  -13.27851
       O    -1.15932  -17.47521  -12.89892
      H1    -0.93037  -17.36002  -11.96485
       H    -1.11366  -13.87301  -19.17812
       O    -1.43336  -12.91121  -19.15975
      H1    -0.95858  -12.42028  -19.87980
       H     3.80271  -10.08157  -15.75004
       O     3.24132   -9.28550  -15.69491
      H1     3.71943   -8.81944  -15.01983
       H     1.52749  -15.40064  -14.94908
       O     2.11634  -15.24290  -15.68873
      H1     2.92479  -15.66676  -15.31309
       H     1.86251  -15.93606  -17.33323
       O     2.07054  -16.08400  -18.27990
      H1     2.58610  -15.31124  -18.54727
       H     2.64615  -19.03331  -13.39801
       O     2.39427  -18.09431  -13.39839
      H1     3.23099  -17.58672  -13.43070
       H     2.36521  -11.62846   -8.81332
       O     3.23128  -11.43259   -9.06701
      H1     3.16122  -11.33317  -10.04305
       H    -3.83248  -18.07704  -18.21360
       O    -3.03836  -18.06787  -18.71788
      H1    -3.27062  -17.49560  -19.41362
       H    -4.77632  -13.12496  -13.28099
       O    -4.43126  -13.24794  -12.40156
      H1    -4.27545  -12.32724  -12.09801
       H    -2.75969  -12.79446  -16.56752
       O    -3.52007  -13.43529  -16.34271
      H1    -3.13310  -14.11958  -15.81714
       H    -2.96441  -13.88769  -11.42227
       O    -2.10780  -14.30813  -11.32617
      H1    -1.83897  -13.82617  -10.51801
       H     1.20610  -13.49181  -16.19026
       O     1.11962  -12.54991  -16.28675
      H1     0.23085  -12.42917  -16.55010
       H    -5.03943   -9.16575  -16.83356
       O    -4.45252   -9.17165  -16.05814
      H1    -4.91129   -8.93205  -15.25057
       H     0.98789  -15.75613  -12.45673
       O     0.58059  -15.46387  -13.31799
      H1     0.53139  -14.50986  -13.21324
       H    -0.45414   -7.66968  -14.32703
       O     0.20430   -7.23862  -13.78079
      H1     0.97380   -7.80892  -13.80840
       H    -0.30330  -11.39962  -10.37309
       O    -0.45444  -12.14963   -9.77972
      H1     0.18212  -12.07916   -9.04302
       H    -4.98725  -10.26993  -18.78491
       O    -5.58936   -9.59712  -18.44823
      H1    -5.92293   -9.12123  -19.21723
       H     4.32617  -17.30084  -15.30239
       O     4.36334  -16.50941  -14.75565
      H1     5.07554  -15.84976  -15.07639
       H     5.65328   -7.71680  -15.01117
       O     6.02835   -7.69543  -15.87837
      H1     5.68301   -6.94258  -16.32553
       H     4.99103   -8.55530  -17.68097
       O     5.11073   -8.80525  -18.62551
      H1     5.89521   -9.36846  -18.64408
       H     3.67837  -13.08445  -18.42837
       O     4.24102  -13.83610  -18.63913
      H1     4.54949  -13.98748  -17.73158
       H     5.02435  -17.09348  -12.27204
       O     4.85802  -16.34749  -11.64626
      H1     4.95037  -15.53749  -12.11926
       H     1.88416  -11.63548  -17.79259
       O     2.36678  -11.66578  -18.61143
      H1     2.37037  -10.75808  -18.95723
       H     5.79226  -10.21663  -12.94416
       O     5.07356  -10.84694  -12.93244
      H1     4.27504  -10.32966  -12.66645
       H    -1.74046  -16.21439  -15.93004
       O    -2.01909  -15.54708  -15.31383
      H1    -2.83710  -15.89870  -14.93631
       H    -2.35313  -10.97023  -12.81536
       O    -1.57114  -11.48543  -12.64628
      H1    -1.77454  -12.29978  -12.19470
       H     7.24151   -9.15036  -16.42687
       O     7.75651   -9.83193  -16.92659
      H1     8.29629   -9.29094  -17.57013
       H     4.49794   -6.55841  -13.96317
       O     4.31855   -7.45888  -13.60298
      H1     4.82850   -7.54519  -12.76843
       H    -6.18183  -14.71723  -17.84941
       O    -5.84775  -13.95889  -18.32764
      H1    -4.99535  -13.67781  -17.93457
       H     6.68355  -11.31215  -18.01095
       O     6.59304  -12.02242  -18.61088
      H1     5.74379  -12.42908  -18.46695
       H    -1.35678  -18.69391  -16.20073
       O    -1.14762  -17.86625  -16.70935
      H1    -1.83284  -18.01127  -17.36495
       H     2.82959  -14.49242  -10.18314
       O     2.06538  -15.09630  -10.18894
      H1     1.24575  -14.64290  -10.33367
       H     4.92706  -13.23161  -10.08722
       O     4.58152  -14.05624   -9.64119
      H1     5.04145  -14.69403  -10.22318
       H    -0.36784   -6.21705  -18.23944
       O    -0.80366   -5.78881  -17.48112
      H1    -0.13683   -5.65541  -16.76203
       H     1.17226  -12.62815  -14.39524
       O     0.97612  -12.79025  -13.45042
      H1     0.12392  -12.26274  -13.34475
       H    -2.88896   -8.03358  -15.65430
       O    -2.14909   -7.43800  -15.38304
      H1    -1.79397   -7.14052  -16.22607
       H     0.85303  -10.77520  -14.45308
       O     1.18675   -9.96736  -14.06148
      H1     1.89724   -9.74981  -14.68081
       H     2.56364  -11.44754  -12.44506
       O     2.67284  -10.95973  -11.63379
      H1     1.97351  -10.27994  -11.55922

