144
frame 2 | Written by MDAnalysis XYZWriter (release 2.4.3)
       H    -7.68116    8.20047  -17.92304
       O    -8.66002    8.43468  -17.81861
      H1    -9.07162    8.01400  -17.03179
       H   -11.87858   11.08190  -14.29819
       O   -12.83951   10.78656  -14.44921
      H1   -13.27928   11.44879  -13.90583
       H    -5.58477   10.01715  -13.55861
       O    -5.53416   10.65988  -12.88387
      H1    -6.24669   10.53914  -12.27731
       H    -5.91793   14.02785  -15.31567
       O    -5.33893   13.93044  -16.04717
      H1    -5.15575   14.87334  -16.30560
       H   -11.83079    7.90742  -18.51433
       O   -11.08123    7.75508  -19.12104
      H1   -10.31115    7.83122  -18.53321
       H   -13.97383   13.27563  -12.87087
       O   -13.96050   12.39025  -12.57969
      H1   -14.84729   11.99117  -12.79273
       H    -4.28957   16.81496  -17.97872
       O    -3.86940   16.01465  -17.83388
      H1    -4.37486   15.26966  -18.16639
       H   -11.53713    6.01250  -19.07919
       O   -11.38412    5.08378  -19.23632
      H1   -11.81344    4.62918  -18.48586
       H    -8.00826   16.18535  -19.50393
       O    -7.18205   15.76190  -19.28458
      H1    -6.60229   15.70169  -20.02553
       H    -7.78562   11.55144  -16.50315
       O    -8.22480   10.78928  -16.06576
      H1    -8.53614   10.28919  -16.78656
       H   -13.33329    7.28580  -16.68369
       O   -13.44584    7.96503  -17.35178
      H1   -13.26491    8.78209  -16.90476
       H    -6.01058    6.59688  -17.57363
       O    -6.09256    7.52982  -17.68061
      H1    -5.69678    7.93274  -16.90823
       H   -10.98054    9.62204  -12.99979
       O   -11.21089    9.30364  -12.14551
      H1   -11.40128   10.12000  -11.61098
       H   -10.88527   15.44715  -13.77992
       O   -11.02506   14.50751  -13.98728
      H1   -10.50227   14.43743  -14.81485
       H    -7.38022   17.44769  -18.32252
       O    -7.30393   18.23041  -17.77363
      H1    -7.91802   18.95183  -18.07043
       H   -14.70662   10.88511  -19.05704
       O   -15.61559   10.62961  -19.30795
      H1   -15.64358    9.67081  -19.20843
       H   -17.03858   10.49085  -18.00072
       O   -17.87163   10.52451  -17.44057
      H1   -17.81303    9.79161  -16.80409
       H    -9.85575   17.47035  -13.09836
       O    -9.51973   16.64836  -12.75076
      H1    -8.56435   16.58994  -12.89018
       H    -3.02770   12.61469  -19.39075
       O    -2.24097   12.04169  -19.42625
      H1    -2.54333   11.16313  -19.43365
       H   -12.89905   14.45190  -14.47653
       O   -13.82778   14.77550  -14.29371
      H1   -14.23429   14.79532  -15.16409
       H    -7.23199    6.86632  -13.96140
       O    -7.98691    7.55547  -13.93160
      H1    -8.38085    7.43183  -13.05955
       H    -4.57741    8.54768  -14.75053
       O    -4.96742    9.09946  -15.44784
      H1    -5.86443    8.73725  -15.49213
       H   -10.64148   11.17659  -16.58253
       O   -11.24199   10.52837  -17.03837
      H1   -10.88188    9.60738  -17.02911
       H    -6.12916   16.57555  -12.70609
       O    -6.98499   16.34711  -13.17327
      H1    -7.05901   16.65093  -14.10000
       H    -7.86201   17.45891  -16.36493
       O    -8.26114   16.92450  -15.69230
      H1    -8.91007   17.54562  -15.29860
       H   -13.72391   16.76616  -19.76509
       O   -13.59591   16.60961  -18.81826
      H1   -14.42520   16.78848  -18.31071
       H   -12.02237   16.39009  -17.77676
       O   -11.24984   16.52439  -17.16602
      H1   -10.91974   15.63993  -16.98375
       H   -12.90771   13.54210  -19.10764
       O   -12.53965   14.16082  -18.42385
      H1   -13.09708   14.95654  -18.56347
       H    -9.10808   15.29907  -15.83159
       O    -9.42178   14.41134  -16.05433
      H1    -8.84583   13.82302  -15.46058
       H   -12.25971   11.14441  -18.35942
       O   -12.80366   11.34867  -19.12811
      H1   -12.22615   11.28274  -19.93805
       H    -7.63293   13.15000  -18.22515
       O    -6.84762   12.60358  -17.91376
      H1    -6.34835   13.09960  -17.21477
       H   -10.11813   16.37952  -18.79638
       O    -9.93558   16.39850  -19.77977
      H1   -10.20654   17.32237  -19.96147
       H    -8.65218    5.33194  -19.81275
       O    -8.53223    4.46354  -19.52711
      H1    -9.28371    4.25256  -18.93581
       H   -15.91034   11.08271  -15.23020
       O   -16.41723   10.83996  -14.42732
      H1   -17.13140   10.22909  -14.66909
       H    -6.99213   12.50863  -13.85525
       O    -7.48929   13.33311  -14.01725
      H1    -7.06661   14.04839  -13.58068
       H    -9.55289    7.79881  -14.86470
       O   -10.10934    7.95684  -15.67244
      H1   -10.92747    7.53483  -15.30051
       H   -12.44383   16.73648  -14.86911
       O   -12.46150   17.59199  -14.46294
      H1   -13.39644   17.77755  -14.30451
       H   -13.90016   14.02587  -17.34834
       O   -14.66473   14.08063  -16.81107
      H1   -15.43007   14.39497  -17.36965
       H   -14.21713   12.03376  -16.64558
       O   -14.63441   11.20070  -16.39231
      H1   -13.90881   10.86152  -15.88187
       H   -14.89409    7.38756  -19.63837
       O   -15.49730    7.83838  -19.01731
      H1   -15.02941    7.76808  -18.17972
       H   -12.58939    5.75765  -15.61793
       O   -12.54933    6.56018  -15.02815
      H1   -13.47977    6.65354  -14.67927
       H   -10.71747   14.13864  -12.21347
       O   -10.57507   14.22986  -11.25551
      H1   -10.84636   15.13299  -11.02600
       H    -9.37101   11.09942  -14.67970
       O   -10.12998   11.30960  -14.10911
      H1    -9.75291   11.38109  -13.22243
       H    -9.80007   13.63218  -19.52406
       O    -9.35427   12.81545  -19.39982
      H1    -9.82437   12.19550  -18.89075
       H   -11.32668   18.96730  -16.42443
       O   -11.64640   19.45674  -17.19057
      H1   -11.98766   18.78447  -17.80115
       H   -16.21033   14.95017  -19.50767
       O   -16.62510   14.94150  -18.58909
      H1   -17.19482   14.13501  -18.63979
       H    -2.37637    9.32579  -17.16196
       O    -2.56923    9.36627  -16.21223
      H1    -3.49012    9.52926  -16.11695
       H    -4.90936   13.82534  -19.96998
       O    -4.41681   13.45588  -19.24277
      H1    -5.04378   12.87630  -18.81098

