144
frame 2 | Written by MDAnalysis XYZWriter (release 2.4.3)
       H   -15.22506   12.14813    1.67056
       O   -15.98535   12.50688    2.22353
      H1   -16.11318   13.39791    1.91837
       H   -16.33669    7.76162    9.98920
       O   -16.67964    7.11527   10.64686
      H1   -17.61113    7.04605   10.41817
       H   -16.85195   13.87995   11.43755
       O   -17.28532   13.08115   11.84917
      H1   -18.10759   12.99042   11.30342
       H   -18.54499   12.61954    5.14461
       O   -18.52933   12.24167    6.02631
      H1   -18.87041   12.94763    6.59427
       H   -11.68750   10.64192    9.37890
       O   -12.51005   10.86257    8.93765
      H1   -12.66282   11.69624    9.37495
       H   -12.62089    8.06581   11.80645
       O   -12.60396    8.34253   10.87023
      H1   -13.49846    8.53804   10.61985
       H   -14.73557   11.83951   15.81803
       O   -14.11613   11.89749   15.09259
      H1   -14.23202   12.74660   14.72632
       H   -14.19732    8.90561    8.89292
       O   -15.05477    8.96577    9.31895
      H1   -15.25421    9.93829    9.40124
       H   -17.18896   17.23071    4.53702
       O   -17.92700   17.40413    5.16388
      H1   -17.52816   17.76033    5.96372
       H   -13.45128   15.12584   14.20682
       O   -14.02060   14.46035   13.76735
      H1   -14.88964   14.82896   14.09459
       H   -16.40421    9.23503    8.02482
       O   -16.85534    9.27948    7.12063
      H1   -16.76873   10.23892    6.94197
       H   -17.76126   18.61984    8.14498
       O   -17.21102   17.91735    7.63509
      H1   -17.37800   17.08495    8.13753
       H   -10.14719   16.99196    9.94585
       O    -9.40814   16.78056    9.35837
      H1    -8.70264   16.43419    9.92469
       H   -13.25111   16.43398    8.14037
       O   -12.94370   17.24128    8.50812
      H1   -12.32891   16.98762    9.18990
       H   -14.54322   19.45489    3.52295
       O   -15.12013   19.32284    2.74973
      H1   -15.55127   18.43460    2.78178
       H   -17.88622   16.47492   10.25191
       O   -18.43771   16.96858   10.85588
      H1   -19.25408   17.11669   10.37702
       H   -18.85917   16.92518   17.36826
       O   -18.36465   16.22681   16.95004
      H1   -19.01269   15.61032   16.63760
       H   -17.80217   13.17246    3.15929
       O   -18.72581   13.36474    3.37732
      H1   -19.05769   14.03482    2.81398
       H   -15.53372   15.25015    0.59475
       O   -16.35834   15.09616    1.07204
      H1   -17.01235   15.16831    0.40596
       H   -13.82063   11.21908   13.36902
       O   -13.69592   10.93879   12.43737
      H1   -14.16535   10.09152   12.56284
       H   -11.75633   13.85553   11.42447
       O   -12.49084   14.53283   11.47296
      H1   -12.85678   14.28936   12.36364
       H   -13.99259   14.45513    7.04758
       O   -14.33116   15.35816    7.13440
      H1   -15.14215   15.15452    7.63142
       H    -9.07682   17.50791    4.45505
       O    -9.36834   18.46174    4.58553
      H1   -10.05420   18.38032    5.26459
       H   -13.50946   13.76270   10.05506
       O   -14.06099   13.35804    9.34905
      H1   -14.75749   12.75641    9.74209
       H   -17.66374   12.75075   13.79447
       O   -17.77906   13.06280   14.70428
      H1   -18.03447   12.31656   15.21503
       H   -11.74362   16.10302   11.22741
       O   -11.63674   17.01085   10.96324
      H1   -11.90146   17.59487   11.68259
       H   -12.46810   16.35774   15.61276
       O   -12.27986   16.11540   14.75060
      H1   -11.46699   15.58454   14.74829
       H   -10.10142   12.11271   10.57898
       O   -10.83050   12.68494   10.38056
      H1   -10.68265   13.06831    9.47650
       H    -9.40438   16.22383    7.47021
       O    -9.77291   15.62541    6.81796
      H1    -9.31703   15.76836    5.94301
       H   -17.47135   17.75928    2.30513
       O   -16.71689   17.29844    2.72417
      H1   -16.64479   16.44883    2.20963
       H   -17.58198   11.04956    2.39320
       O   -18.39749   10.56820    2.53386
      H1   -18.07763    9.65569    2.68920
       H   -16.62187   14.48285   15.20495
       O   -16.19388   15.28190   15.50708
      H1   -16.88717   15.75616   16.04142
       H   -16.23852   18.90905   14.64538
       O   -16.34900   19.78152   14.22317
      H1   -15.61024   19.73365   13.60933
       H   -11.70549   17.70967    7.01002
       O   -11.32895   18.43965    6.49768
      H1   -10.97109   19.03712    7.18584
       H   -17.47260    7.44712    6.88782
       O   -17.81820    6.66879    7.27959
      H1   -18.35511    6.30255    6.55585
       H   -14.10240   16.50706   10.91048
       O   -15.04531   16.59123   10.67988
      H1   -15.25922   17.56311   10.60962
       H   -18.25201   15.57960   13.78047
       O   -19.10402   15.86514   13.37278
      H1   -18.76241   16.27819   12.58462
       H   -15.98993   18.76348    8.87980
       O   -15.31182   18.95554    9.55463
      H1   -14.62227   18.31091    9.29152
       H    -9.73071   18.60310    9.01403
       O    -9.93783   19.50240    9.00593
      H1    -9.28968   20.07257    9.48755
       H   -15.31179   12.27344    7.06551
       O   -16.20832   12.42669    7.46789
      H1   -16.82300   12.45526    6.68081
       H   -13.18919    9.81256    4.41889
       O   -12.36422    9.29290    4.46052
      H1   -11.80341    9.63001    3.76414
       H   -17.16130   14.57142    8.51566
       O   -16.78237   15.43539    8.79299
      H1   -16.00733   15.25526    9.34405
       H   -12.56603   12.25014    6.08932
       O   -13.33230   11.90113    6.51416
      H1   -12.90386   11.38692    7.17976
       H   -10.52713   11.43013    7.01450
       O    -9.80348   10.94197    6.58469
      H1   -10.22478   10.12161    6.29181
       H   -12.00254   18.08121   14.11390
       O   -11.58585   18.60186   13.40102
      H1   -11.84779   19.50740   13.60202
       H   -18.22076   18.54283   11.56580
       O   -18.01797   19.47293   11.72386
      H1   -17.21233   19.43224   12.28590
       H   -12.02874   13.65978    7.65029
       O   -11.05930   13.47557    7.73445
      H1   -10.55794   14.29049    7.52375
       H   -16.29599   11.71210   10.66165
       O   -15.93385   11.39798    9.86294
      H1   -16.37200   11.77158    9.06930

