144
frame 6 | Written by MDAnalysis XYZWriter (release 2.4.3)
       H     7.07646    4.13386    3.89587
       O     7.23217    3.16579    3.98391
      H1     6.87870    3.01303    4.87961
       H    13.77583    4.89482    2.22049
       O    13.88033    4.24823    1.49769
      H1    14.21905    3.49117    2.00256
       H    13.35962    9.27334    2.54354
       O    13.25578    8.49340    1.99515
      H1    13.63838    8.77456    1.12012
       H     8.04991   10.10401    3.80057
       O     8.59952   10.04280    3.00430
      H1     8.97278   10.97560    3.00586
       H    11.18030    7.99754   -3.19323
       O    11.49039    8.31675   -2.35615
      H1    10.82820    8.01368   -1.71340
       H    10.97225    3.93499   -1.94668
       O    11.47976    4.73662   -2.05610
      H1    12.41298    4.62082   -1.82405
       H     5.91709    5.29870    5.16904
       O     5.38364    4.87664    5.87484
      H1     5.91595    5.01585    6.69247
       H    10.16709   10.73448   -3.15863
       O     9.42914   10.29728   -3.73403
      H1     9.11605   11.06644   -4.20334
       H    12.85159    3.82295    4.34076
       O    12.38898    4.64638    4.66901
      H1    11.54599    4.73452    4.23668
       H    10.14251    6.39409    5.26554
       O     9.55856    5.79381    4.82410
      H1     9.82456    4.91215    4.94995
       H     8.76147    9.69125    0.94971
       O     9.57298    9.78388    0.38454
      H1     9.57579    8.92410   -0.08182
       H    12.47004    7.29429    6.30202
       O    12.46853    7.78434    5.45178
      H1    11.60214    8.21668    5.35823
       H    17.18538    9.72193    3.42291
       O    16.47330    9.77447    4.05972
      H1    16.21393    8.84029    4.14614
       H    11.18611   11.16965   -1.06763
       O    11.46035   10.95380   -1.97555
      H1    11.50996    9.95825   -2.02214
       H    10.89574    6.36703    1.62496
       O    11.02583    5.45776    1.39496
      H1    11.58325    5.46877    0.62909
       H    16.03825    6.92712    6.32317
       O    16.16215    7.11607    5.34598
      H1    15.38948    6.76593    4.83902
       H     7.86493    6.04905    4.09918
       O     6.96661    5.92898    3.77803
      H1     6.99419    6.01295    2.76970
       H     9.36146    8.13089    8.13024
       O     8.38682    8.27348    8.11250
      H1     8.26923    9.27787    8.11237
       H     9.99578    9.97627    5.97485
       O    10.05571    9.18530    5.38312
      H1     9.67788    9.47752    4.55870
       H     4.85402    8.36714    0.17494
       O     5.78253    8.45365    0.18262
      H1     5.99138    9.37532    0.00762
       H     8.54539    7.55074   -1.51126
       O     9.28119    7.29572   -0.96121
      H1     8.91284    6.59934   -0.36810
       H    10.62540   14.51371    5.15974
       O    11.01598   13.66711    4.90209
      H1    11.72756   14.03529    4.33245
       H    12.25906    2.04458    1.05674
       O    11.58541    2.31309    1.67390
      H1    11.75040    3.24680    1.82662
       H    13.95208    6.97324    3.03922
       O    14.21869    6.15158    3.42882
      H1    13.57594    6.05898    4.15021
       H    14.54607   13.30257    6.21747
       O    14.30373   12.55948    5.69115
      H1    13.74116   12.02013    6.23413
       H     5.37921   11.32540    3.23389
       O     5.89064   10.83029    3.88779
      H1     5.41996   10.00001    4.06587
       H     8.52487   10.76682   -2.24766
       O     8.31492   11.29069   -1.41690
      H1     8.71815   10.80145   -0.71456
       H    13.81439    8.89357    6.26497
       O    14.57008    9.34036    6.72779
      H1    15.30256    9.24493    6.09410
       H    12.08767    6.46433    8.47259
       O    12.66119    6.41993    7.68154
      H1    12.55109    5.47518    7.46487
       H    10.32975   11.44982    7.76860
       O     9.74445   11.56441    6.95752
      H1    10.27572   12.04596    6.34763
       H    11.93526    3.91714    6.51777
       O    12.08586    3.79979    7.48843
      H1    11.22873    3.50829    7.87920
       H     6.21754    8.21589   -1.70154
       O     6.72826    7.83592   -2.44962
      H1     6.43780    8.09233   -3.30933
       H    10.33831    8.76906    1.92302
       O    10.63283    7.96160    2.37912
      H1    11.59424    8.12019    2.27876
       H    11.53850   12.62858    1.15236
       O    11.02410   12.28772    0.42598
      H1    11.37325   12.86421   -0.27830
       H    15.29333    8.10071   -0.36272
       O    14.36037    8.13146   -0.51322
      H1    14.05309    7.38407   -1.01134
       H    13.32804   10.49511   -2.62956
       O    14.26706   10.24031   -2.50523
      H1    14.14938    9.52202   -1.81758
       H     7.67029   12.76912    1.69671
       O     6.87097   12.84020    1.14871
      H1     7.00911   13.64614    0.55811
       H    13.63482   12.93869   -1.47036
       O    14.21957   12.32685   -0.97328
      H1    14.37424   11.48092   -1.52382
       H    10.78296   15.24943    0.73764
       O     9.86258   14.97738    0.88808
      H1     9.80751   14.15920    1.41746
       H     4.12969    8.12866    4.68567
       O     4.69393    8.12652    3.89065
      H1     5.40075    7.44114    4.04742
       H    14.68366   10.50702    3.36145
       O    13.80677   10.85582    3.54923
      H1    14.05896   11.71328    3.99671
       H    13.41809   13.86203    2.64654
       O    12.89264   13.10296    2.34014
      H1    13.21823   12.30206    2.78676
       H    14.83695    4.49396   -1.12386
       O    14.12487    5.15111   -1.21920
      H1    13.87836    5.13694   -0.27220
       H    10.12664   13.09284    3.13252
       O     9.48763   12.65436    2.57638
      H1     9.95395   12.26582    1.75941
       H     8.10505    4.81518    0.27167
       O     8.36898    5.56430    0.82131
      H1     9.22316    5.36252    1.21838
       H    10.46156    2.05043    4.36319
       O    10.00281    2.90021    4.54024
      H1     9.15132    2.81113    4.14952
       H     8.99925    5.59995   -3.17370
       O     8.80775    5.93725   -4.07337
      H1     7.92877    6.35181   -4.02219
       H     8.94664    1.94569   -0.25623
       O     8.86910    1.71274    0.67400
      H1     9.69727    2.00764    0.99605

