144
frame 8 | Written by MDAnalysis XYZWriter (release 2.4.3)
       H    -4.91224   -7.26157   -1.57921
       O    -5.16747   -8.16989   -1.23345
      H1    -4.56037   -8.37907   -0.48096
       H    -9.49116  -17.31203   -4.66701
       O    -9.01406  -16.80069   -5.26909
      H1    -8.15639  -17.23997   -5.28673
       H    -7.67816  -10.15696    1.56206
       O    -7.83552  -11.00717    1.10475
      H1    -7.60084  -10.86604    0.22936
       H    -9.71805   -8.84994    1.31554
       O   -10.45790   -8.65929    1.93769
      H1   -10.92941   -9.51714    1.97104
       H   -10.93783   -7.76763   -5.32525
       O   -11.21629   -7.51258   -4.40114
      H1   -11.63666   -6.62637   -4.40065
       H    -9.92433  -12.62602   -9.81353
       O    -9.59658  -12.17715   -8.98926
      H1    -9.71711  -12.87759   -8.32197
       H    -9.66899   -5.70445   -4.40148
       O    -8.75004   -5.37551   -4.38975
      H1    -8.46534   -5.48339   -5.27926
       H    -9.83524  -15.62565   -8.06543
       O    -9.65323  -14.65514   -7.84074
      H1    -9.46698  -14.63497   -6.88446
       H    -2.53061  -14.15023   -5.08102
       O    -2.32358  -13.19985   -4.96350
      H1    -3.20405  -12.77662   -4.74318
       H   -10.70700  -12.47550   -2.23105
       O    -9.97104  -11.94260   -1.79263
      H1   -10.40397  -11.15662   -1.37743
       H    -8.24046   -5.36301   -8.09857
       O    -7.84503   -5.45683   -7.22944
      H1    -6.94579   -5.68234   -7.35827
       H    -4.75116  -11.51687   -3.89082
       O    -4.80677  -12.35708   -4.46493
      H1    -5.72586  -12.50069   -4.71998
       H    -8.18486   -6.76936    0.12940
       O    -8.09351   -5.94639    0.67444
      H1    -7.59944   -6.15394    1.44715
       H    -5.58978  -11.66666    1.61157
       O    -4.90234  -12.08723    2.13105
      H1    -5.45750  -12.40770    2.85202
       H    -7.82339   -7.97419   -8.99683
       O    -7.74107   -8.23201   -8.04068
      H1    -7.57634   -7.46141   -7.52520
       H    -9.96649   -6.04795   -9.11557
       O   -10.81306   -6.30355   -8.74021
      H1   -10.53655   -7.05792   -8.12696
       H   -10.31199   -9.83084   -6.00213
       O   -10.01308  -10.29932   -5.16398
      H1   -10.80469  -10.46529   -4.69636
       H    -9.40603  -15.01363   -5.09223
       O    -9.61801  -14.01427   -4.99339
      H1   -10.42418  -13.97575   -4.50749
       H    -3.97608  -14.27370   -7.04012
       O    -4.47096  -14.75182   -6.40158
      H1    -5.16570  -14.17990   -6.01143
       H    -5.29703  -15.52583    0.44759
       O    -4.71102  -15.26163   -0.28012
      H1    -3.81463  -15.49681   -0.00065
       H    -5.79622  -17.69526   -3.78212
       O    -5.76860  -17.42154   -2.84498
      H1    -5.97880  -16.46224   -2.82719
       H   -10.85099   -8.79657   -7.89596
       O   -10.42868   -8.47188   -7.05909
      H1    -9.50165   -8.56614   -7.26194
       H    -6.58935   -8.25492   -4.12484
       O    -6.19527   -8.82672   -4.82421
      H1    -6.55988   -9.66927   -4.56742
       H    -8.44788   -8.45333   -1.44493
       O    -7.98328   -8.37865   -0.52683
      H1    -7.02463   -8.35999   -0.67871
       H    -8.56694  -10.95953   -4.19257
       O    -7.76614  -10.81714   -3.67761
      H1    -7.77211  -11.50871   -3.05423
       H    -4.82819   -6.07043   -8.69957
       O    -5.24107   -6.49736   -7.95147
      H1    -4.55385   -6.82970   -7.31516
       H    -4.88751   -4.89708   -3.15252
       O    -5.34525   -5.57659   -2.61707
      H1    -6.04729   -5.09976   -2.13571
       H    -2.35544  -13.09226   -7.71609
       O    -2.96935  -13.48960   -8.28701
      H1    -3.71145  -12.81134   -8.38472
       H   -12.64700   -9.61741   -3.81918
       O   -12.26308  -10.53882   -3.72826
      H1   -13.00576  -11.13250   -3.80494
       H    -5.55499  -13.91784   -3.34050
       O    -5.85358  -14.74021   -2.86274
      H1    -5.26195  -14.81461   -2.07016
       H    -8.89025   -9.52749   -3.21673
       O    -9.34938   -8.80820   -2.80855
      H1    -9.68447   -8.23702   -3.51888
       H    -8.12728  -12.64263   -1.62791
       O    -7.17967  -12.51688   -1.59183
      H1    -6.77906  -13.31453   -1.93562
       H    -5.44027  -12.45720   -0.84616
       O    -4.48481  -12.70603   -0.86661
      H1    -4.40473  -13.54484   -0.34086
       H    -4.38232   -7.14368   -5.32152
       O    -3.60573   -7.11467   -5.88179
      H1    -3.06702   -6.44421   -5.48236
       H    -7.31500  -13.61788  -10.21910
       O    -7.48916  -14.34132   -9.63379
      H1    -8.29654  -14.19784   -9.18025
       H    -8.70770  -12.65347    1.18923
       O    -8.85426  -13.49540    1.65486
      H1    -9.21229  -14.10820    0.98434
       H   -12.75148  -13.17344   -7.55725
       O   -12.30486  -14.05898   -7.57931
      H1   -11.30335  -13.77840   -7.60607
       H    -7.91567   -4.74372   -2.25366
       O    -7.38524   -4.38723   -1.52554
      H1    -7.65132   -4.93095   -0.76554
       H    -7.98616  -13.33236   -5.37411
       O    -7.11227  -13.30003   -5.78037
      H1    -7.18768  -12.62620   -6.40918
       H    -5.60524   -9.05047    3.08172
       O    -6.39629   -8.78154    2.61412
      H1    -6.19692   -8.17974    1.91716
       H    -3.60018   -8.44907   -8.89815
       O    -3.66461   -9.40907   -9.10649
      H1    -3.85764   -9.89836   -8.29648
       H    -7.33576  -10.09958   -7.56587
       O    -7.37926  -11.00769   -7.81501
      H1    -8.19399  -11.13373   -8.37262
       H    -5.79012  -13.33578   -9.18779
       O    -5.43230  -12.48651   -9.12423
      H1    -6.06712  -11.99343   -8.51697
       H   -10.85658   -9.04758   -1.59264
       O   -11.47997   -9.61665   -1.14346
      H1   -12.04912   -9.97812   -1.79692
       H    -2.90361   -9.82597   -4.69722
       O    -2.49902   -9.56486   -5.52755
      H1    -2.91223   -8.67108   -5.57371
       H   -12.39074  -13.13814   -3.35243
       O   -11.59061  -13.62624   -3.13337
      H1   -11.87653  -14.31348   -2.51018
       H    -3.94736   -9.43154   -2.60560
       O    -3.62348  -10.15627   -3.17034
      H1    -3.00219  -10.75383   -2.64677
       H    -2.81129  -11.77774   -0.97169
       O    -2.03941  -11.43984   -1.44667
      H1    -1.42739  -10.94363   -0.90483

