144
frame 8 | Written by MDAnalysis XYZWriter (release 2.4.3)
       H    -6.32800  -16.89236   10.02289
       O    -5.88499  -16.39435    9.36692
      H1    -5.26541  -16.99677    8.93990
       H   -12.44302  -12.40801   14.07312
       O   -12.56765  -13.36097   13.86521
      H1   -13.47354  -13.51781   13.53348
       H   -11.63969  -10.11037   16.89779
       O   -12.20910  -10.25410   17.63906
      H1   -12.55524   -9.35763   17.87973
       H    -6.78996   -7.00406    8.75048
       O    -7.65357   -7.42617    8.61489
      H1    -7.70778   -8.34465    8.95584
       H    -5.94667  -17.41617   12.91372
       O    -6.19307  -16.46300   12.91066
      H1    -5.46750  -15.94954   12.45173
       H    -6.17121  -16.07157   18.49903
       O    -6.21982  -15.11439   18.69914
      H1    -7.12678  -14.89411   18.28996
       H    -7.10638  -15.18882    6.59210
       O    -6.33684  -15.16628    5.93246
      H1    -6.67096  -15.63007    5.18765
       H    -9.70548   -8.48056   16.05967
       O    -9.91871   -9.38973   15.97221
      H1   -10.17604   -9.41780   15.07030
       H    -8.47831  -11.23120    6.00983
       O    -8.74338  -11.39602    5.10035
      H1    -9.52753  -11.96796    5.07122
       H    -8.87382  -14.50462   16.53312
       O    -7.95152  -14.68916   16.76497
      H1    -7.49445  -14.48807   15.88530
       H    -9.07792   -9.94292   10.29085
       O    -8.38677   -9.99224    9.61203
      H1    -8.36304  -10.89192    9.32056
       H    -8.60330  -12.97494   12.08200
       O    -7.86125  -12.92789   12.69533
      H1    -7.29733  -12.18121   12.38796
       H   -11.60999  -10.20654   11.04868
       O   -10.69035  -10.32770   11.17642
      H1   -10.55033  -11.25534   11.41517
       H    -7.11564  -13.80041   13.97903
       O    -6.40898  -14.06023   14.65616
      H1    -5.93682  -14.78748   14.12348
       H    -3.54772  -13.35465   17.45217
       O    -3.78271  -14.27975   17.42344
      H1    -4.68797  -14.31639   17.72415
       H   -10.64421  -14.15234    7.44032
       O   -10.40540  -14.66050    8.20686
      H1   -11.24427  -14.87953    8.64311
       H   -12.16529   -9.88299   14.02997
       O   -11.73592  -10.71430   13.71253
      H1   -11.54458  -10.47676   12.81767
       H    -2.80462   -8.95982   12.29218
       O    -1.94982   -8.54437   12.05388
      H1    -2.11542   -8.12802   11.11863
       H    -7.31236   -7.36113   15.09224
       O    -7.44355   -6.43741   14.79812
      H1    -8.20456   -6.53117   14.22818
       H    -1.40977  -12.29485   14.54137
       O    -1.68957  -11.57892   15.11369
      H1    -0.99668  -10.90071   15.06574
       H    -5.06053  -11.10452   16.42938
       O    -4.68742  -10.60647   15.63583
      H1    -3.80396  -11.00394   15.51105
       H    -4.66076  -15.58901   10.63848
       O    -4.56461  -15.06270   11.46547
      H1    -3.73865  -15.18841   11.96456
       H    -5.28084   -6.82751   10.32917
       O    -4.89892   -6.79198    9.45106
      H1    -4.77384   -7.68165    9.12730
       H    -8.12212  -16.35108   15.34852
       O    -8.70352  -16.99505   14.87223
      H1    -7.99005  -17.50440   14.40832
       H    -3.76458  -12.03087   10.73255
       O    -4.14438  -12.42364   11.53295
      H1    -4.31839  -13.31740   11.24365
       H    -9.10393  -17.12565   10.68184
       O    -9.56244  -17.84043   10.21585
      H1    -9.18223  -17.87819    9.34596
       H   -14.13382  -11.06656   10.75560
       O   -13.29694  -10.88023   10.30259
      H1   -13.41906   -9.99178    9.94159
       H    -5.16861  -11.73605   12.79437
       O    -5.82767  -11.16545   13.27006
      H1    -5.58852  -11.08968   14.17983
       H   -11.42591  -13.28215   16.25313
       O   -10.43940  -13.38727   16.03745
      H1    -9.92906  -12.89639   16.72883
       H   -11.09776  -14.80629   14.38768
       O   -11.20816  -15.70454   14.41462
      H1   -10.34461  -16.09167   14.63089
       H    -8.05103  -17.41797    6.80738
       O    -7.75369  -17.61499    7.72402
      H1    -7.17513  -16.91551    8.05102
       H    -0.69591  -13.48408   12.31314
       O    -1.31147  -13.36415   13.08427
      H1    -2.10821  -12.92753   12.69289
       H    -6.28653   -9.60210   16.10013
       O    -6.93170   -8.90376   15.93150
      H1    -7.79140   -9.27658   15.86011
       H    -4.26988   -9.12880    7.61425
       O    -5.02222   -9.21717    8.21751
      H1    -5.80662   -9.02888    7.68277
       H   -11.03484  -13.95737   11.11131
       O   -10.66107  -13.29244   11.72353
      H1   -11.30945  -13.38108   12.46875
       H    -7.51057  -14.68905   11.06170
       O    -8.07828  -15.48175   11.17833
      H1    -7.53072  -16.03784   11.75623
       H    -5.11074   -9.90032   12.44902
       O    -4.52659   -9.21188   12.09518
      H1    -4.77882   -8.35157   12.32744
       H    -8.70680  -14.99101    8.52043
       O    -7.80569  -14.81165    8.20662
      H1    -7.19041  -15.24054    8.75217
       H   -10.04440   -7.56502   12.85410
       O    -9.79751   -8.43905   13.21971
      H1   -10.00726   -9.10455   12.58766
       H    -5.95551  -11.94379   18.82833
       O    -6.27509  -11.76478   17.89573
      H1    -6.29730  -12.64784   17.46758
       H    -4.32677   -6.76311   15.82532
       O    -3.93892   -7.38656   15.18554
      H1    -4.64901   -8.07714   15.07781
       H    -4.65257  -11.99203    6.80824
       O    -5.17586  -11.51064    6.12012
      H1    -5.34004  -12.09566    5.34466
       H    -3.66442  -15.75235   15.90231
       O    -3.81580  -16.25657   15.09138
      H1    -3.34057  -15.74082   14.44511
       H    -7.56233  -12.93766    7.90380
       O    -7.45471  -11.98081    7.74366
      H1    -6.55563  -11.87167    7.37276
       H    -3.02020  -11.48619    8.29561
       O    -3.93808  -11.82874    8.51134
      H1    -4.42366  -10.99559    8.44370
       H    -5.46208   -5.60062   12.60093
       O    -4.75561   -6.24230   12.52635
      H1    -4.31593   -6.25325   13.41518
       H    -9.74984  -11.16251   17.61321
       O    -9.24701  -11.89570   18.00587
      H1    -8.32458  -11.80955   17.79118
       H    -1.74380  -14.80870   13.03808
       O    -2.14894  -15.69316   12.98915
      H1    -1.35116  -16.22171   13.10623

