144
frame 5 | Written by MDAnalysis XYZWriter (release 2.4.3)
       H    18.84758    3.42825   -6.23438
       O    19.25797    3.45216   -5.32182
      H1    19.82731    2.68630   -5.30720
       H    11.75171   -2.23814   -0.19819
       O    11.84560   -2.27571   -1.20366
      H1    12.75543   -2.67070   -1.39786
       H    13.75571    4.39044    1.94718
       O    14.20512    4.81242    1.16342
      H1    15.13711    4.91764    1.40764
       H    16.30055   -4.96900   -3.77055
       O    17.21103   -5.03038   -3.35580
      H1    16.93881   -5.11243   -2.44435
       H    14.05666   -2.70505   -2.76987
       O    14.15849   -3.36814   -2.06407
      H1    13.67204   -4.13556   -2.44462
       H    12.54529    0.05043   -7.50128
       O    13.05529   -0.68163   -7.87821
      H1    12.91746   -0.56172   -8.87986
       H    14.49803    3.61939   -5.40559
       O    14.50867    3.90127   -4.47157
      H1    13.83579    4.60226   -4.47532
       H    10.28302    3.16893   -1.71609
       O    10.38738    4.11539   -2.00828
      H1    11.29407    4.19296   -2.25648
       H    16.14971    6.80685   -5.32494
       O    15.65399    6.55058   -4.54873
      H1    15.48209    5.60241   -4.43905
       H    16.91885    1.53452    1.69661
       O    17.30015    2.30858    1.35854
      H1    18.23195    2.18039    1.21795
       H    19.42368   -5.83411   -0.60846
       O    18.45779   -5.74411   -0.83564
      H1    18.30681   -4.91676   -0.40907
       H    15.02719    0.35791   -1.63332
       O    15.83918   -0.20962   -1.77879
      H1    15.78531   -0.59499   -2.64767
       H    12.20059   -4.26836   -0.31506
       O    12.14527   -4.97740    0.36318
      H1    12.85087   -5.57079    0.19915
       H    18.95484   -2.65602   -8.12910
       O    19.34356   -1.72759   -8.07795
      H1    19.43352   -1.47538   -8.99068
       H    14.78462    0.55199    0.02911
       O    14.01906    1.16726   -0.05939
      H1    14.33521    1.97417    0.38705
       H    16.45733   -0.08281    3.38501
       O    16.42338    0.05438    2.44981
      H1    15.99351   -0.66209    1.98065
       H    11.81422   -1.64668    2.03013
       O    11.16394   -2.02434    1.46457
      H1    11.03711   -2.94314    1.73319
       H    16.90132   -3.08221    0.01048
       O    16.23623   -3.74133   -0.09359
      H1    15.55809   -3.39726   -0.69220
       H    10.44882    1.08751   -1.56944
       O     9.74757    1.68865   -1.25585
      H1     9.04125    1.62983   -1.90654
       H    12.92664    0.27486   -1.51474
       O    12.19106    0.34405   -2.10791
      H1    11.65499   -0.51221   -1.96390
       H    14.09675   -4.54919   -5.44392
       O    14.63789   -5.07188   -4.87078
      H1    14.02086   -5.57837   -4.32068
       H    12.42263    1.45644    1.13993
       O    11.76692    1.89659    1.66502
      H1    11.51059    2.73177    1.25802
       H    13.34156   -1.50110    3.98062
       O    13.04187   -1.02856    3.21362
      H1    12.71824   -0.20682    3.56268
       H    16.74407    2.78861   -0.40843
       O    16.26136    3.14252   -1.18932
      H1    16.89281    3.01851   -1.92765
       H    16.66463   -1.98758   -8.92278
       O    16.71359   -1.45381   -9.75004
      H1    15.86334   -1.68723  -10.18555
       H    13.77116    2.17377   -4.54998
       O    13.11949    1.47375   -4.88464
      H1    12.55826    1.40801   -4.07905
       H    17.54219    5.44727   -2.50589
       O    17.99537    6.28062   -2.33864
      H1    17.72651    6.72643   -3.13657
       H    17.82998   -2.71945   -4.29237
       O    17.72379   -2.53119   -5.20548
      H1    17.13721   -1.82898   -5.26868
       H    16.33986    3.67601   -4.11046
       O    17.14820    3.77833   -3.65801
      H1    17.89800    3.68435   -4.29188
       H    12.37458   -4.43290   -8.65122
       O    13.28405   -4.15907   -8.58087
      H1    13.44405   -3.82584   -7.70030
       H    15.39118   -6.94365    0.51869
       O    14.71879   -6.27444    0.64636
      H1    15.21998   -5.49344    0.56253
       H     9.78479   -5.35516   -1.37882
       O     9.74904   -4.66642   -2.04394
      H1    10.52280   -4.85302   -2.63269
       H    15.04091   -2.68713    0.86615
       O    14.81054   -1.73403    1.04275
      H1    14.06372   -1.73339    1.64926
       H    19.34685   -2.73400    0.23795
       O    19.03757   -3.52968    0.74272
      H1    18.90388   -3.11041    1.62605
       H    12.31855   -3.15306   -6.14934
       O    13.21392   -2.79316   -6.21230
      H1    13.11446   -2.06881   -6.85889
       H    11.98661    1.51020   -6.45326
       O    11.52376    1.52210   -7.31352
      H1    12.21773    1.92644   -7.86107
       H    17.50255    3.84750    2.01205
       O    17.47874    4.82253    2.16952
      H1    17.57256    5.02342    3.10765
       H    19.11698   -7.59437   -2.65775
       O    18.51164   -7.42834   -3.32893
      H1    18.06668   -6.56432   -3.14200
       H    19.63552   -0.57700   -4.46455
       O    19.08326   -0.11681   -3.80415
      H1    18.23842    0.15025   -4.21774
       H    15.65885    0.02105   -6.09744
       O    15.95959   -0.30567   -5.21472
      H1    15.10750   -0.40897   -4.79915
       H    11.49548   -6.05005   -3.36216
       O    11.74144   -5.11940   -3.59308
      H1    11.24539   -4.88490   -4.36770
       H    13.07677   -0.83404   -3.87909
       O    13.87680   -1.38331   -4.02330
      H1    13.62780   -1.92392   -4.78878
       H    14.33183    3.75601   -7.63397
       O    15.01661    3.54440   -7.08380
      H1    15.13556    2.59733   -7.24572
       H    16.73609    3.70948   -7.89112
       O    17.63646    3.45758   -7.89718
      H1    17.79461    3.46613   -8.88120
       H    15.83000    0.64369   -8.44402
       O    15.19505    0.88117   -7.73867
      H1    14.44096    0.30565   -7.90353
       H     9.09269   -0.05181   -3.83202
       O     9.83629   -0.63338   -3.72508
      H1     9.36454   -1.23272   -3.07852
       H    16.95282   -3.32925   -6.62267
       O    16.86134   -3.56216   -7.60139
      H1    16.21403   -4.33815   -7.63152
       H    14.01966    3.88639   -1.81249
       O    13.33206    4.50330   -1.63239
      H1    13.43563    4.56409   -0.70428

