144
frame 8 | Written by MDAnalysis XYZWriter (release 2.4.3)
       H    13.66317    5.66943   15.62174
       O    13.46419    4.89151   16.22516
      H1    12.96535    4.26223   15.66789
       H     8.47344    8.96217   11.31619
       O     8.24329    8.08619   11.03543
      H1     8.03018    8.20919   10.11597
       H    17.38097    7.14601    9.72515
       O    16.42158    7.17221    9.81689
      H1    16.17033    6.74479   10.65732
       H     9.89312    4.33454   16.13545
       O     9.68145    3.63411   16.74360
      H1    10.52973    3.33367   17.08351
       H    15.72116    3.00416    7.33997
       O    15.77760    3.63256    6.57751
      H1    15.88909    4.50353    7.00201
       H    10.93682    8.93176   11.18517
       O    11.33578    9.79039   11.42255
      H1    11.40414   10.27005   10.59772
       H    11.62738    2.71326   13.71674
       O    12.07845    2.46748   14.58393
      H1    12.99044    2.37765   14.21614
       H    15.10208    2.73673   12.38243
       O    14.15997    2.95126   12.26664
      H1    13.77548    2.23006   11.72552
       H    13.19704    4.75487    5.01166
       O    13.45017    3.81138    5.20540
      H1    14.27675    3.88404    5.74447
       H    12.20250    3.17002    6.17923
       O    11.33230    3.04639    6.67755
      H1    11.12761    2.06015    6.60836
       H     9.49221    7.73555    6.02043
       O     8.98043    6.92206    6.29860
      H1     9.39237    6.18572    5.82331
       H    15.02644   10.17022    9.79986
       O    15.41149    9.67954   10.55224
      H1    15.89747    8.96200   10.19057
       H    17.06199    3.48342   13.31629
       O    16.95650    3.99968   14.10757
      H1    16.42402    3.42417   14.69409
       H    13.50567   -1.69488   13.24774
       O    13.39509   -0.73230   13.25842
      H1    13.67983   -0.57802   12.30661
       H    10.04763    6.20521   14.44744
       O    10.57924    5.41718   14.67599
      H1    10.47748    4.89524   13.90535
       H    14.08659    9.50455   11.81854
       O    13.60033    9.30486   12.68476
      H1    12.70932    9.24645   12.33319
       H    15.89083    0.45938   14.99389
       O    14.99136    0.84592   15.03855
      H1    14.45967    0.33530   14.38759
       H    12.37621    7.50796    6.85118
       O    12.80357    8.18124    6.26085
      H1    11.99796    8.59383    5.85388
       H    13.99408    0.15999    7.50448
       O    14.13195   -0.79375    7.57563
      H1    14.84117   -1.01417    6.95860
       H     8.53100    7.02625   15.31527
       O     8.10676    6.87110   14.45778
      H1     7.67452    5.98863   14.40384
       H    11.35384    5.53610    4.37855
       O    10.49995    5.14549    4.67593
      H1    10.77455    4.42723    5.33810
       H    16.12652    1.70128    9.11065
       O    15.51181    2.40295    8.90967
      H1    14.74731    1.99098    9.33823
       H     7.13067    0.70649    6.03814
       O     7.43733    1.60193    6.20848
      H1     8.37764    1.62669    6.41045
       H    16.24907    6.84613    6.59812
       O    16.89760    7.22355    5.93534
      H1    17.01458    6.58018    5.20661
       H     8.00556    7.59195    7.71103
       O     7.50928    8.04857    8.39740
      H1     7.26300    8.88952    8.03460
       H     6.39931    6.42953    8.69345
       O     5.82350    5.62699    8.82726
      H1     5.11335    6.05234    9.35371
       H     9.44364   -0.35289   12.79494
       O     9.89859   -0.93452   12.14039
      H1     9.23313   -1.08985   11.39316
       H    13.27271    7.05625    3.45693
       O    13.11247    6.51855    4.25656
      H1    12.98083    7.16067    4.96974
       H     6.41328    3.74676   13.96110
       O     6.68893    4.58351   13.61567
      H1     5.82530    5.05664   13.60114
       H    11.08122    6.76658   10.52178
       O    10.80316    7.55842   10.05120
      H1     9.83954    7.51458   10.11414
       H    16.88791    3.18934   10.86902
       O    17.13702    2.77830   11.71801
      H1    17.05164    1.82262   11.61186
       H    14.42125    8.94627    6.29249
       O    15.02376    9.70411    6.36171
      H1    15.81923    9.26348    6.04473
       H    12.23302   -1.86468   10.30972
       O    12.07189   -0.89274   10.39721
      H1    11.29718   -0.86778   11.10225
       H    11.19321    6.46504    8.65021
       O    11.69372    5.90376    8.05916
      H1    11.06945    5.27354    7.71622
       H    13.99158    5.95096   12.80180
       O    14.50798    5.71918   11.95764
      H1    14.54531    4.77155   12.13620
       H    10.98626    2.60749    8.53356
       O    11.20946    2.74807    9.44534
      H1    10.43202    2.33758    9.84593
       H    10.84456    4.17236   11.95080
       O    10.56492    3.50172   12.60806
      H1     9.97414    2.94764   12.08690
       H    15.01430    2.59683   16.07967
       O    15.58320    3.22600   16.54740
      H1    14.94426    3.93998   16.65231
       H    12.11045    6.26234   14.45137
       O    12.98453    6.63283   14.35194
      H1    13.01315    7.56003   14.22219
       H    11.98934    4.30373   10.15357
       O    12.04057    4.93310   10.87085
      H1    12.90104    4.78488   11.22282
       H    16.45594    5.56660   14.64157
       O    16.41039    6.44676   15.07586
      H1    16.31432    7.15058   14.41261
       H    12.56744    1.94719    9.85410
       O    13.28853    1.45948   10.23982
      H1    12.94648    0.54716   10.22579
       H     9.11061    1.00585   14.89245
       O     9.58245    0.83655   14.06515
      H1    10.44517    1.17925   14.28388
       H    14.34222    5.97396    7.93144
       O    15.27432    6.05446    7.69676
      H1    15.67620    6.44839    8.48680
       H     8.18318    2.54411   11.01794
       O     8.91143    1.88982   11.03460
      H1     8.45280    1.07264   10.98834
       H    15.53672    8.53728   13.14093
       O    16.50374    8.48901   13.26588
      H1    16.69452    9.41715   13.31781
       H     9.81588   -0.27602    7.17511
       O    10.09813    0.40245    6.55286
      H1    10.61063   -0.08896    5.87942
       H     6.82242    4.51377    9.93565
       O     6.93368    3.88648   10.70237
      H1     6.84941    4.36050   11.54615

