144
frame 10 | Written by MDAnalysis XYZWriter (release 2.4.3)
       H    18.77312  -13.44693   -6.51884
       O    19.38520  -13.68136   -7.25400
      H1    19.02374  -13.29126   -8.07315
       H    18.86247   -9.44072   -8.08025
       O    17.92572   -9.63599   -8.10048
      H1    17.56733   -9.10937   -7.37602
       H    16.86829  -12.18378  -17.39325
       O    17.70778  -12.06921  -16.96748
      H1    17.56203  -11.19329  -16.56806
       H    11.40088   -9.01526  -11.07593
       O    11.66027   -8.40811  -10.32804
      H1    12.21536   -7.64469  -10.60692
       H    11.88274   -7.50718   -8.61063
       O    12.46570   -7.09446   -7.90301
      H1    13.07739   -7.74920   -7.62553
       H    18.09480   -5.99959   -3.66134
       O    18.85374   -6.48070   -3.31518
      H1    18.83894   -6.55555   -2.35479
       H    18.76905   -3.13373  -10.76991
       O    19.69786   -2.99346  -10.47432
      H1    20.16700   -3.83860  -10.43748
       H    15.12506  -12.63173  -15.76190
       O    14.62227  -13.44056  -15.45644
      H1    15.08117  -14.14814  -15.88683
       H    15.98107  -12.71296   -2.79664
       O    15.81921  -11.80545   -2.86576
      H1    16.32833  -11.68303   -3.67936
       H    16.64809   -4.81983  -11.67486
       O    16.31074   -5.64641  -12.05579
      H1    16.26058   -6.30399  -11.37496
       H    15.12559   -5.17203  -13.67369
       O    14.50700   -5.31330  -14.41651
      H1    13.58996   -5.49209  -14.11964
       H    20.20077   -6.88123  -16.11265
       O    19.43319   -6.33085  -16.34519
      H1    18.88366   -6.98297  -16.85929
       H    15.73125  -15.86608   -7.01566
       O    16.29772  -16.56911   -6.65988
      H1    16.55651  -17.18642   -7.33528
       H    18.50189  -13.27989  -15.59766
       O    18.50297  -13.72444  -14.72266
      H1    19.28003  -13.37280  -14.29175
       H    14.88612  -11.60231   -9.15831
       O    15.17049  -12.13954   -8.45210
      H1    16.04522  -12.45215   -8.55731
       H    15.58189   -3.72411  -14.75750
       O    15.66576   -2.75651  -14.82572
      H1    15.78362   -2.57397  -15.75113
       H    13.51164  -10.83442   -5.78256
       O    13.72395  -11.74941   -6.04181
      H1    14.38111  -11.73117   -6.73240
       H    13.00453   -9.67662  -10.10124
       O    13.66474  -10.41414  -10.09357
      H1    13.31694  -11.09889  -10.70061
       H    19.15799   -0.91625  -13.19622
       O    18.61746   -1.54041  -13.69252
      H1    19.22561   -2.25769  -13.95841
       H    20.16383  -11.99489  -19.38010
       O    19.80621  -12.64169  -18.76490
      H1    19.04419  -12.23356  -18.35873
       H    13.90276  -17.46538  -11.92118
       O    14.79101  -17.06434  -11.98408
      H1    14.57397  -16.17251  -12.33089
       H    12.67925   -9.80782   -4.29336
       O    12.92117   -9.27222   -5.09374
      H1    13.84237   -8.97342   -4.85548
       H    15.52324   -9.54638   -8.06010
       O    15.15515   -8.83325   -7.48060
      H1    15.57441   -8.93495   -6.62636
       H    13.84017  -14.60131   -7.12402
       O    14.25692  -14.56044   -8.00619
      H1    14.50751  -13.60202   -8.19519
       H    17.35694   -2.65265  -12.45307
       O    17.21513   -3.06826  -11.58150
      H1    16.72873   -2.41407  -11.09189
       H    15.77622   -8.11583   -3.81906
       O    15.66296   -8.13637   -4.76810
      H1    15.18155   -7.29835   -5.01720
       H    12.19747  -14.08223  -10.63541
       O    12.52854  -13.33726  -11.20853
      H1    13.15160  -13.80574  -11.78929
       H    13.41512   -5.76972   -8.35055
       O    14.23864   -5.39867   -8.77577
      H1    14.25750   -4.42554   -8.66416
       H    15.67057   -9.38710  -13.66607
       O    15.22204   -9.68152  -12.89616
      H1    14.69755   -8.92729  -12.66761
       H    10.93539  -11.68725  -15.20997
       O    11.76940  -11.80764  -14.72080
      H1    12.51041  -11.26191  -15.11607
       H    15.51974  -16.37733   -9.84965
       O    16.45048  -16.17540   -9.75389
      H1    16.85355  -17.03895   -9.46523
       H    16.10099   -8.65430  -11.52082
       O    15.99284   -8.07328  -10.74615
      H1    15.48764   -8.58352  -10.09797
       H    17.85407  -12.21074   -5.09825
       O    17.85277  -13.16107   -4.97449
      H1    18.62982  -13.47609   -4.50399
       H    17.18181   -8.63596  -17.75122
       O    17.85034   -8.50115  -17.03963
      H1    18.55994   -9.00080  -17.45057
       H    19.56445   -6.61472   -8.58121
       O    18.64977   -6.83704   -8.35205
      H1    18.60509   -7.74717   -8.60882
       H    19.53023   -9.90132  -10.80921
       O    19.17391   -9.03403  -10.82847
      H1    18.24819   -9.19342  -10.54992
       H    14.04804   -6.13978  -10.88039
       O    13.33682   -6.49781  -11.54958
      H1    12.64578   -5.87097  -11.39924
       H    14.05623  -10.17623  -14.58010
       O    13.95281  -10.66214  -15.40865
      H1    13.73729   -9.94560  -15.99083
       H    17.97081  -11.29624   -8.49373
       O    18.09401  -12.13386   -9.02834
      H1    18.67281  -11.85268   -9.77527
       H    17.91515   -6.01427  -13.28481
       O    18.72453   -5.59954  -13.53710
      H1    18.82982   -5.69493  -14.49745
       H    16.38295   -7.91740  -15.60100
       O    15.57954   -8.18993  -15.13968
      H1    15.04740   -7.36948  -14.91130
       H    16.95011   -9.81580   -4.72589
       O    17.65105  -10.47505   -4.95075
      H1    18.45060  -10.03139   -4.51152
       H    19.55477  -16.77037  -15.54956
       O    19.54450  -15.87784  -15.90433
      H1    19.07333  -15.23948  -15.31247
       H    15.69328  -14.27644  -12.31099
       O    14.79158  -14.29573  -12.59287
      H1    14.86451  -14.12882  -13.55549
       H    16.65067   -2.91587   -6.37156
       O    17.19085   -3.12768   -7.17547
      H1    17.10572   -4.09473   -7.31206
       H    17.12016   -6.22814   -7.38220
       O    16.29164   -5.80786   -7.13145
      H1    15.68277   -5.98823   -7.85753
       H    16.92889  -11.70963  -12.51943
       O    17.87149  -11.69853  -12.82763
      H1    17.85780  -12.35560  -13.54898
       H    16.95372  -15.73098  -11.45415
       O    17.35363  -15.38408  -12.25446
      H1    17.33126  -16.12599  -12.93672

