144
frame 10 | Written by MDAnalysis XYZWriter (release 2.4.3)
       H   -16.47739   -5.99564    9.23214
       O   -17.12623   -6.58935    8.80014
      H1   -17.95556   -6.15718    8.74347
       H   -18.35090    0.92421   10.55050
       O   -19.15291    0.68993   11.04628
      H1   -19.33939    1.40357   11.64992
       H   -17.64020   -9.81291   11.34148
       O   -17.90594  -10.72062   11.56624
      H1   -18.85614  -10.65774   11.84545
       H   -12.53205   -5.93670   18.61127
       O   -13.40252   -6.26838   18.34940
      H1   -13.92619   -6.19136   19.15405
       H   -12.04533   -9.06249   18.39943
       O   -12.92191   -8.97355   18.83233
      H1   -13.07667   -8.04825   18.65584
       H   -11.36393    0.94797   12.22262
       O   -11.69646    0.12040   12.61207
      H1   -11.73998    0.31790   13.57810
       H   -15.10677   -5.74277   14.98851
       O   -14.93403   -4.94273   14.50614
      H1   -14.74874   -4.23385   15.14072
       H   -11.32500    1.34035   18.49641
       O   -10.52510    1.49696   17.88783
      H1    -9.74689    1.40470   18.42633
       H   -12.82180   -2.99560   16.06228
       O   -11.94090   -2.95863   15.69610
      H1   -11.89486   -3.40467   14.86437
       H   -14.26045   -9.32467   15.33062
       O   -14.48569  -10.30931   15.24904
      H1   -14.41423  -10.60248   16.14897
       H   -13.29001   -7.04346   10.24221
       O   -14.12753   -7.47435   10.00134
      H1   -14.46760   -7.75309   10.82794
       H   -18.85308    6.20976   16.93063
       O   -18.40645    5.39772   17.29514
      H1   -18.85129    4.68797   16.83591
       H   -10.42837   -5.04021   18.78955
       O   -11.10421   -5.43415   19.38035
      H1   -10.58266   -6.28391   19.65065
       H   -15.53208   -3.53186   13.20667
       O   -15.63844   -2.81286   12.58448
      H1   -16.46495   -2.39294   12.77455
       H   -15.70857    2.80532   12.85986
       O   -16.03471    3.16460   13.70079
      H1   -15.64352    4.03125   13.79024
       H   -18.94408    2.65240   13.91475
       O   -18.56914    2.62710   13.03213
      H1   -17.64439    2.78491   13.08006
       H   -17.19158   -7.59696   10.24639
       O   -17.55064   -8.01587   11.07078
      H1   -18.47052   -7.66298   11.00523
       H   -14.09516  -11.76105   18.69477
       O   -13.94626  -11.93530   17.77505
      H1   -13.24954  -12.55471   17.66365
       H   -17.35907  -10.77541   14.17849
       O   -16.89699   -9.93039   14.38011
      H1   -16.10109  -10.26536   14.88913
       H   -16.28661   -3.90975   11.06478
       O   -16.22428   -4.17471   10.10947
      H1   -15.29350   -4.13016    9.94983
       H   -17.17675   -8.34664   13.84365
       O   -17.36035   -7.43617   13.63589
      H1   -17.51348   -7.37780   12.63881
       H   -14.85945    1.03928   11.99411
       O   -14.97085    1.90036   11.52805
      H1   -15.79514    1.92731   10.98152
       H   -18.47716   -2.43443   15.58467
       O   -18.64583   -3.39993   15.48178
      H1   -18.84138   -3.71776   16.43108
       H   -13.15340   -2.34427   11.88120
       O   -13.15466   -2.31006   10.90864
      H1   -13.84933   -1.74488   10.58343
       H   -20.07745   -4.11307   18.48794
       O   -19.29391   -3.54614   18.41237
      H1   -18.68448   -4.09784   18.89812
       H   -14.77685   -1.17525   12.85154
       O   -14.37161   -0.32536   13.03591
      H1   -13.49472   -0.43394   12.56083
       H   -19.28668   -1.79038   17.56244
       O   -19.08685   -0.95895   17.22021
      H1   -19.62741   -0.36887   17.76285
       H   -13.12201    1.61784   19.27431
       O   -13.01389    0.68598   19.01896
      H1   -13.70677    0.10788   19.47520
       H   -16.49657    0.48810   18.16940
       O   -16.88988   -0.06550   18.87230
      H1   -17.53343   -0.68931   18.47832
       H   -13.50403    4.20085   19.46175
       O   -12.67317    3.68604   19.69667
      H1   -11.93132    4.06151   19.17627
       H   -16.14383   -8.76429   18.80474
       O   -15.81295   -9.47554   18.23015
      H1   -14.84093   -9.51200   18.39349
       H   -13.96723   -6.87925   16.76595
       O   -14.56600   -7.20597   16.09236
      H1   -15.22940   -7.78658   16.54104
       H   -16.79005   -6.27173   17.15384
       O   -17.45061   -6.15560   17.81800
      H1   -18.27941   -6.57684   17.62063
       H   -12.14647   -4.57336   12.86470
       O   -11.77753   -3.67679   13.06383
      H1   -11.09160   -3.37908   12.46678
       H   -11.80263   -1.07801   19.13877
       O   -11.40359   -1.95120   18.91212
      H1   -11.40482   -2.07545   17.95258
       H   -14.23287   -3.39976   17.71359
       O   -14.36151   -3.34209   16.76371
      H1   -14.81203   -2.48392   16.63954
       H    -9.59532   -3.10774   17.07819
       O    -9.87016   -4.06314   17.15421
      H1   -10.55366   -4.11482   16.49809
       H   -18.29899   -0.50344   12.08383
       O   -17.91547   -1.16206   12.62232
      H1   -17.78111   -0.68638   13.46504
       H   -17.31451  -10.51477   18.36198
       O   -18.03208  -11.16938   18.38410
      H1   -17.51278  -12.00261   18.33067
       H   -15.09252    4.36668   16.34126
       O   -14.51978    3.69730   15.97078
      H1   -14.95498    3.30647   15.24940
       H   -16.58251   -0.52777   15.31989
       O   -17.50642   -0.36509   15.16223
      H1   -17.99850   -0.57815   15.97551
       H   -18.60768  -10.43059   16.81371
       O   -19.05565   -9.85940   16.17303
      H1   -18.33558   -9.59128   15.51210
       H   -14.81001    2.31623   16.99368
       O   -15.01700    1.53819   17.51525
      H1   -14.15970    1.18748   17.88473
       H   -14.92893    0.13902   16.42130
       O   -14.91535   -0.69582   15.87578
      H1   -14.60403   -0.39689   15.03519
       H   -17.95572   -1.83075    8.40048
       O   -16.98832   -2.02893    8.38966
      H1   -16.95110   -2.71272    9.07832
       H   -13.00856   -7.05026   12.80824
       O   -12.93792   -6.17163   13.10885
      H1   -13.62206   -6.00450   13.80661
       H   -11.43097    0.40896   16.21513
       O   -12.08857    0.19006   15.53506
      H1   -12.20025   -0.78601   15.70784
       H   -15.30043   -8.38608   12.83355
       O   -14.41740   -8.79962   12.65153
      H1   -14.57510   -9.75655   12.65847

