144
frame 0 | Written by MDAnalysis XYZWriter (release 2.4.3)
       H    -4.02219    4.28283   10.46519
       O    -3.48613    4.40580   11.25622
      H1    -3.87125    3.96582   11.98936
       H    -1.45578    5.58836    0.57442
       O    -1.69741    4.67847    0.34367
      H1    -1.17863    4.02215    0.83890
       H     0.28797    4.68234    3.97148
       O    -0.14774    5.38529    3.47833
      H1     0.63034    5.75878    3.02329
       H    -1.65765   -0.78452   12.64407
       O    -2.39047   -0.77058   11.99468
      H1    -2.94201   -0.01047   12.15683
       H     1.87495    4.47436    6.34421
       O     0.99791    4.68227    6.60529
      H1     1.10150    5.59496    6.97906
       H    -7.76078    3.34308    6.31266
       O    -7.21021    3.93314    5.73109
      H1    -7.72591    4.04247    4.90719
       H     4.37239    4.34485    5.38525
       O     3.57843    3.83126    5.49347
      H1     3.28091    3.55427    4.63630
       H     3.75955   -2.22800    5.00858
       O     3.17357   -1.53909    5.27817
      H1     3.43617   -0.67120    4.88289
       H    -1.05036   -5.61625    3.73558
       O    -0.69195   -5.42704    4.67281
      H1    -1.49765   -5.16067    5.13364
       H    -0.72668    4.89694   11.11328
       O    -0.86561    4.00153   10.80737
      H1    -1.81888    3.82536   10.90535
       H    -2.69057    1.27299    3.55943
       O    -2.63267    1.81733    2.78415
      H1    -3.50863    1.86052    2.34837
       H     1.89618   -4.57379    2.41628
       O     1.90146   -4.91027    3.28302
      H1     1.04768   -4.61842    3.66723
       H     1.38212   -2.58859    7.89156
       O     0.60729   -2.99873    8.24979
      H1    -0.03048   -2.95819    7.54345
       H    -5.58871   -6.13149    5.28454
       O    -5.07481   -5.30766    5.23633
      H1    -5.05235   -4.92560    4.36833
       H    -4.49954    2.56776    0.44531
       O    -4.80595    1.71720    0.84064
      H1    -4.78787    1.00033    0.27413
       H    -4.74347    0.83057    7.36142
       O    -4.84214    0.04947    6.84876
      H1    -5.67888    0.09430    6.34942
       H    -7.50745    3.02067    1.97871
       O    -7.33945    2.15837    1.49321
      H1    -6.37956    2.22367    1.27987
       H     1.48096   -1.20245    4.64873
       O     0.61725   -0.79781    4.87065
      H1     0.17528   -0.72239    3.99996
       H    -2.47009   -6.02018    9.57934
       O    -1.99946   -5.35612   10.14784
      H1    -2.67024   -4.70663   10.35062
       H    -8.55910    2.27637    8.52329
       O    -7.77595    2.17293    7.90631
      H1    -7.01230    2.48204    8.40543
       H    -1.73231    6.19979    3.90949
       O    -2.59306    6.57626    3.88212
      H1    -3.01325    6.26714    4.74924
       H    -4.19208   -0.70800   -0.71121
       O    -4.70348   -0.81519    0.17634
      H1    -5.60660   -1.10179   -0.05461
       H    -0.78920   -1.09524   10.76987
       O     0.07039   -0.92441   10.28215
      H1     0.28017   -1.69937    9.73875
       H    -4.02899    5.36218    5.74273
       O    -3.83721    6.27892    6.08841
      H1    -3.39099    6.09247    6.93333
       H    -0.60671   -2.02977    5.65287
       O    -1.20720   -2.41277    6.31090
      H1    -1.41118   -1.78168    6.95119
       H     4.86253    1.16750    7.11426
       O     3.96314    1.46249    6.96015
      H1     3.75368    2.37419    6.63948
       H    -7.56023    0.18829    4.16154
       O    -7.77140    0.01691    3.25747
      H1    -7.38457    0.68498    2.69283
       H    -2.69805    3.22587    7.29486
       O    -3.51133    2.68411    7.18687
      H1    -4.00624    2.95218    6.39988
       H    -3.23481   -2.47862   11.10711
       O    -3.79829   -3.19444   10.84999
      H1    -4.06932   -3.07632    9.92307
       H     3.57066   -2.08002    6.95906
       O     3.85542   -2.54059    7.72047
      H1     3.80752   -2.02555    8.53055
       H    -3.45174    0.13638    5.73753
       O    -2.68068    0.10194    5.13539
      H1    -1.99155    0.04565    5.81713
       H    -4.76639   -4.28076    2.31941
       O    -3.95391   -4.30035    2.86249
      H1    -3.54627   -3.40771    2.83415
       H    -0.88043    3.51047    9.09709
       O    -0.94226    3.37467    8.11707
      H1    -0.22786    3.79477    7.70665
       H    -3.54710   -5.00452    5.80402
       O    -2.73795   -4.86600    6.40066
      H1    -2.38200   -4.01101    6.27511
       H     1.58232    0.44129    8.67163
       O     2.52155    0.16787    8.66420
      H1     3.00637    0.78493    8.04886
       H    -7.83002    0.86725    6.65078
       O    -7.55322    0.26888    5.95502
      H1    -8.01038   -0.57891    6.20307
       H     0.20356   -5.63725   10.23873
       O     0.92867   -5.09552    9.98492
      H1     0.68729   -4.53524    9.28605
       H    -1.47406   -1.36134    2.35189
       O    -0.54182   -0.98338    2.50278
      H1    -0.60089   -0.11270    2.01048
       H    -4.76921   -1.67051    7.71827
       O    -4.65658   -2.46400    8.25798
      H1    -4.41969   -3.21854    7.71627
       H    -0.69007    1.70566    0.27397
       O    -0.56027    2.09099    1.17132
      H1    -1.40265    2.01398    1.69032
       H    -0.74247    1.31293    7.43659
       O    -0.59779    0.45064    7.02623
      H1     0.07836    0.48673    6.35470
       H    -4.99902    4.13744    4.37597
       O    -4.20766    3.68857    4.71827
      H1    -3.60617    3.75577    3.96870
       H     1.15749    2.31824    2.65579
       O     2.02961    2.62533    3.00833
      H1     2.41886    1.86063    3.44143
       H    -3.50403   -0.83552    3.29416
       O    -3.38487   -1.36865    2.56434
      H1    -3.90376   -0.97639    1.87197
       H     3.82931    1.14316    5.32614
       O     3.68144    0.89070    4.33011
      H1     4.51537    1.13967    3.84349
       H    -2.62128   -5.18401    2.64171
       O    -1.88244   -5.72074    2.18058
      H1    -2.37600   -6.58619    2.10879
       H    -4.64464    2.83184    8.43997
       O    -5.49024    3.08397    8.96823
      H1    -5.44367    2.51007    9.75728
       H     4.29729   -1.47348    1.91736
       O     3.38261   -1.28802    1.56997
      H1     2.83673   -1.16826    2.37573

