144
frame 9 | Written by MDAnalysis XYZWriter (release 2.4.3)
       H   -16.47892   -6.13625    9.29641
       O   -16.84971   -6.79357    8.66960
      H1   -17.29269   -6.27947    8.02167
       H   -13.11951  -12.45886    8.49309
       O   -13.47419  -12.96898    7.70384
      H1   -14.02738  -12.25675    7.24021
       H   -16.05058  -10.47461   -0.79062
       O   -16.52429   -9.88236   -0.17879
      H1   -15.96174  -10.05787    0.62283
       H   -12.79541   -7.65600    9.22935
       O   -13.59281   -8.21073    9.45277
      H1   -14.39921   -7.70549    9.25546
       H    -8.53371  -11.85756    6.18855
       O    -9.06604  -11.68961    5.37226
      H1    -9.85624  -12.25004    5.47111
       H    -9.78001   -7.51010    2.08418
       O   -10.02639   -8.39437    2.41987
      H1   -10.46259   -8.93638    1.74197
       H   -17.57256   -7.68829   10.01200
       O   -18.01064   -7.80415   10.89084
      H1   -18.91868   -7.71783   10.54058
       H   -11.89819   -5.13494    3.25461
       O   -12.37286   -4.83168    4.03994
      H1   -11.86974   -5.11205    4.85682
       H   -10.21534   -5.32614    8.27350
       O    -9.63933   -4.65202    7.92645
      H1    -9.28956   -4.98876    7.10917
       H   -17.49630   -9.99667    8.13282
       O   -16.91587   -9.34239    7.68663
      H1   -17.05179   -8.43221    8.06937
       H   -15.05340   -4.91198   10.94053
       O   -14.82981   -5.30025   10.06446
      H1   -14.16921   -4.67559    9.69722
       H   -14.46956   -1.52552    4.98978
       O   -14.18118   -0.68197    5.28873
      H1   -14.92039   -0.10644    4.97754
       H   -10.68911   -3.57795    7.34934
       O   -11.36760   -2.92580    6.96845
      H1   -11.10205   -2.67251    6.06934
       H   -15.06722  -13.02930    8.95098
       O   -15.96753  -13.35312    8.88869
      H1   -16.07020  -13.99921    9.57771
       H   -15.81461   -3.57311    2.69828
       O   -16.58385   -3.47049    2.16644
      H1   -16.55276   -4.16637    1.48038
       H   -12.20742  -10.76313    2.39786
       O   -12.37789  -10.95524    1.45947
      H1   -12.32358  -11.92069    1.31529
       H   -17.10347  -10.63796    2.76950
       O   -18.05494  -10.56363    2.99800
      H1   -18.08192  -10.78763    3.93906
       H   -11.32343   -9.83771    4.22930
       O   -12.27734   -9.89170    4.17827
      H1   -12.60364   -9.09035    4.55181
       H   -11.10780   -7.44372   11.27288
       O   -11.39602   -7.91711   12.03028
      H1   -11.83942   -7.27578   12.63553
       H   -13.90113   -3.97894    4.03209
       O   -14.68892   -3.40517    4.13658
      H1   -15.15202   -3.76015    4.91402
       H    -9.21777  -10.01043    5.08819
       O    -9.52041   -9.09806    5.09571
      H1    -9.62684   -8.78940    4.11653
       H   -14.27542  -11.17214   10.84880
       O   -13.70980  -10.94920   10.07546
      H1   -13.85062  -10.02134    9.79760
       H   -19.01560  -12.08031    5.50924
       O   -18.87870  -11.11764    5.60991
      H1   -19.75309  -10.78623    5.32549
       H   -19.08660   -9.10846    2.27028
       O   -19.44401   -8.33529    1.82681
      H1   -20.31902   -8.59590    1.37727
       H   -14.52462   -7.83951    6.07977
       O   -13.77936   -8.36314    6.45222
      H1   -13.88929   -8.33699    7.37793
       H   -14.88502   -9.15837    2.46612
       O   -14.96197  -10.08360    2.20456
      H1   -14.10381  -10.29663    1.85953
       H   -10.88947   -7.09065    6.30852
       O   -11.70160   -6.50194    6.29671
      H1   -12.38405   -7.17441    6.20148
       H   -11.86324   -6.29251    1.27637
       O   -11.39303   -5.50492    1.63846
      H1   -10.48109   -5.68643    1.39352
       H   -19.01688   -4.37464    4.47365
       O   -18.97311   -3.86944    3.65583
      H1   -18.16683   -4.16636    3.16058
       H   -17.24397   -1.15502    5.60125
       O   -17.68508   -1.97338    5.93759
      H1   -17.70271   -2.41005    5.09552
       H   -15.42335  -11.33239    3.40309
       O   -15.69717  -11.85918    4.19040
      H1   -15.64950  -11.24819    4.91257
       H   -17.31723  -12.22379    8.88872
       O   -18.14762  -11.68008    9.07616
      H1   -18.04263  -11.37658    9.98587
       H   -19.09561   -9.49398    6.77162
       O   -19.61068   -8.68204    6.94140
      H1   -19.10072   -7.96473    6.59140
       H   -19.95455   -5.95228    9.07552
       O   -19.52715   -5.35098    8.47282
      H1   -19.39135   -4.46995    8.85814
       H   -14.07936   -7.51253    1.95311
       O   -14.74861   -7.37591    2.61878
      H1   -15.47316   -6.80334    2.19618
       H   -11.74062   -6.43593    7.92542
       O   -11.47481   -6.37127    8.83548
      H1   -12.18663   -5.76825    9.15832
       H   -17.81554   -7.00009    1.46127
       O   -17.07388   -6.35313    1.32329
      H1   -16.71486   -6.69087    0.47396
       H   -12.07935  -12.95525    6.71918
       O   -11.38643  -13.00773    6.01678
      H1   -11.69383  -13.61241    5.33267
       H   -15.58962  -10.29947    6.76974
       O   -14.78555  -10.75936    6.47956
      H1   -14.21054   -9.99827    6.27638
       H   -14.32138  -13.36520    4.67401
       O   -14.11133  -14.29913    4.62060
      H1   -14.15670  -14.66112    5.53514
       H    -8.97885   -7.51654    7.87478
       O    -8.82542   -7.26834    6.93346
      H1    -9.15527   -7.99999    6.45881
       H   -15.50297   -6.19024    5.68476
       O   -15.78765   -6.91229    5.14052
      H1   -15.26410   -7.02925    4.35335
       H   -13.75296   -4.64970    6.82801
       O   -14.71036   -4.92745    6.70382
      H1   -15.23312   -4.44137    7.32787
       H   -17.71096   -6.69107    5.16628
       O   -18.56163   -6.29725    5.42736
      H1   -19.18404   -6.57894    4.74906
       H   -17.23122   -3.23519    8.43364
       O   -16.29765   -3.51709    8.47680
      H1   -16.17093   -3.94741    9.30660
       H   -13.09930   -7.65977   -0.06968
       O   -12.61381   -8.09689    0.65510
      H1   -12.40311   -8.98258    0.39280
       H   -12.55746   -3.23058    9.88513
       O   -12.65522   -3.83954    9.14598
      H1   -12.09884   -3.47154    8.47452
       H   -15.12840   -8.59344   12.65602
       O   -14.96672   -7.84509   12.04628
      H1   -14.23892   -8.08930   11.43627

