144
frame 9 | Written by MDAnalysis XYZWriter (release 2.4.3)
       H   -13.11951  -12.45886    8.49309
       O   -13.47419  -12.96898    7.70384
      H1   -14.02738  -12.25675    7.24021
       H    -6.97358  -10.47630    1.37124
       O    -7.10054  -11.32503    0.81624
      H1    -7.31593  -11.09470   -0.12003
       H   -14.76777  -13.44750   -0.50881
       O   -15.20070  -13.83423   -1.29442
      H1   -15.97491  -14.20316   -0.88183
       H   -16.05058  -10.47461   -0.79062
       O   -16.52429   -9.88236   -0.17879
      H1   -15.96174  -10.05787    0.62283
       H    -6.29973  -15.27444    6.35949
       O    -5.76642  -15.78455    5.65858
      H1    -6.31727  -16.25634    5.08999
       H   -10.73236  -18.16688    6.38339
       O    -9.83085  -18.28165    6.05467
      H1    -9.64960  -19.24643    6.09740
       H    -9.10485  -18.67254    2.70484
       O    -8.72827  -19.39344    3.20136
      H1    -9.20101  -19.42534    4.07322
       H    -8.53371  -11.85756    6.18855
       O    -9.06604  -11.68961    5.37226
      H1    -9.85624  -12.25004    5.47111
       H    -9.78001   -7.51010    2.08418
       O   -10.02639   -8.39437    2.41987
      H1   -10.46259   -8.93638    1.74197
       H   -16.72671  -15.10441    3.70176
       O   -17.09829  -14.26106    3.37748
      H1   -16.47458  -13.55299    3.58360
       H   -11.57653  -14.48311    2.17173
       O   -11.34385  -13.64833    1.72204
      H1   -10.41547  -13.46182    1.91466
       H   -10.23053  -12.89867   -1.91734
       O    -9.95300  -12.61758   -0.99666
      H1   -10.54366  -11.95499   -0.70716
       H   -10.20935  -14.65981    6.98060
       O    -9.86444  -15.46555    7.28431
      H1   -10.45333  -15.74799    7.97663
       H   -15.95017  -18.56585    1.01373
       O   -15.52966  -17.72131    0.91810
      H1   -15.08343  -17.58613    1.71806
       H   -11.00390  -19.49775   -0.02285
       O   -11.61145  -19.11584   -0.60737
      H1   -11.69936  -18.19667   -0.31665
       H   -15.06399  -17.48518    4.12748
       O   -14.35487  -17.85938    3.60032
      H1   -14.27614  -18.82983    3.74887
       H   -13.45505  -18.84887    6.55814
       O   -12.76514  -18.19234    6.40884
      H1   -13.12197  -17.62068    5.77252
       H   -12.20742  -10.76313    2.39786
       O   -12.37789  -10.95524    1.45947
      H1   -12.32358  -11.92069    1.31529
       H   -13.34287  -13.44494    1.58176
       O   -14.25075  -13.13241    1.29352
      H1   -14.78015  -13.12606    2.08847
       H   -11.07695  -17.13752    1.91646
       O   -10.10897  -17.21527    2.10591
      H1    -9.72972  -16.73080    1.36459
       H   -10.52215  -16.07127    4.24028
       O   -11.13720  -15.63078    4.83075
      H1   -10.67102  -15.80941    5.66965
       H    -7.38405  -17.98569    3.51371
       O    -6.56784  -17.44124    3.46484
      H1    -6.58852  -16.91299    2.67924
       H   -11.32343   -9.83771    4.22930
       O   -12.27734   -9.89170    4.17827
      H1   -12.60364   -9.09035    4.55181
       H    -9.21777  -10.01043    5.08819
       O    -9.52041   -9.09806    5.09571
      H1    -9.62684   -8.78940    4.11653
       H   -17.23114  -14.40065    1.68575
       O   -17.44519  -14.28430    0.76125
      H1   -18.29231  -13.87774    0.73246
       H    -6.86606  -14.18363    2.77601
       O    -6.16608  -14.02093    3.40133
      H1    -6.03555  -14.72774    4.01735
       H   -14.88502   -9.15837    2.46612
       O   -14.96197  -10.08360    2.20456
      H1   -14.10381  -10.29663    1.85953
       H   -17.75061  -15.71060   -0.41703
       O   -17.59214  -16.66812   -0.53669
      H1   -16.97225  -16.89657    0.15782
       H    -8.53083  -12.09336   -1.60586
       O    -7.63079  -11.67288   -1.86020
      H1    -7.06133  -12.43256   -2.02458
       H   -14.79443  -13.38512   -4.41478
       O   -14.29827  -14.04084   -3.84420
      H1   -14.58238  -13.99803   -2.90347
       H   -15.42335  -11.33239    3.40309
       O   -15.69717  -11.85918    4.19040
      H1   -15.64950  -11.24819    4.91257
       H   -14.36625  -17.14514   -1.77302
       O   -14.83168  -17.58946   -2.47900
      H1   -14.75720  -18.48198   -2.11445
       H    -6.43515  -16.82103    0.52654
       O    -6.37807  -16.14895    1.25738
      H1    -7.07792  -15.51029    0.99683
       H   -14.88801  -16.13141    7.60053
       O   -15.25505  -15.45990    7.01865
      H1   -14.99963  -14.67676    7.50538
       H    -8.17137  -14.71443    7.74088
       O    -7.23600  -14.47456    7.70088
      H1    -6.87161  -14.54084    8.61050
       H    -7.72054  -12.78730    1.35013
       O    -8.01065  -13.72988    1.36519
      H1    -8.36678  -13.95472    0.49328
       H   -17.24473  -17.72758    5.02647
       O   -16.73186  -16.97715    4.68284
      H1   -16.72058  -16.36806    5.46247
       H    -9.23373  -17.16381   -0.52974
       O    -9.51375  -16.30573   -0.32662
      H1    -9.79536  -16.07624   -1.22104
       H   -12.07935  -12.95525    6.71918
       O   -11.38643  -13.00773    6.01678
      H1   -11.69383  -13.61241    5.33267
       H   -15.58962  -10.29947    6.76974
       O   -14.78555  -10.75936    6.47956
      H1   -14.21054   -9.99827    6.27638
       H   -14.32138  -13.36520    4.67401
       O   -14.11133  -14.29913    4.62060
      H1   -14.15670  -14.66112    5.53514
       H    -5.12914  -12.28635    5.64394
       O    -5.63405  -11.92217    4.88878
      H1    -5.81480  -12.69351    4.28080
       H   -11.60139  -15.94954   -1.92792
       O   -11.06929  -15.72972   -2.69389
      H1   -11.37780  -16.53308   -3.21719
       H   -13.22112  -16.75077    2.21559
       O   -12.80015  -15.87201    2.37193
      H1   -13.01725  -15.61093    3.29435
       H   -10.54157   -9.41958   -1.93849
       O   -11.15318  -10.10729   -1.50668
      H1   -11.56859  -10.67037   -2.18770
       H   -11.50961  -12.72872   -3.92632
       O   -10.69336  -13.26049   -3.83134
      H1   -10.99620  -14.09727   -3.44374
       H   -13.68355  -15.65173   -0.27621
       O   -13.38874  -16.56542   -0.51407
      H1   -14.03838  -17.03431   -0.07307
       H   -13.09930   -7.65977   -0.06968
       O   -12.61381   -8.09689    0.65510
      H1   -12.40311   -8.98258    0.39280

