144
frame 4 | Written by MDAnalysis XYZWriter (release 2.4.3)
       H    -9.63673  -16.04350   -8.03393
       O    -9.12613  -16.08428   -8.88751
      H1    -8.87604  -17.02096   -9.06081
       H    -9.55009  -19.12126   -6.92197
       O    -9.64425  -19.00061   -5.96825
      H1   -10.57451  -19.08318   -5.76310
       H    -1.94081  -16.83517  -10.38801
       O    -2.83673  -16.45691  -10.26294
      H1    -2.73999  -15.51911  -10.13839
       H   -10.65615  -16.51821   -3.79895
       O    -9.89102  -16.02266   -4.12713
      H1    -9.17174  -16.61562   -4.30465
       H     3.53668  -17.02035   -9.98765
       O     2.94793  -17.78452   -9.86930
      H1     3.03429  -18.28416  -10.70444
       H     1.74126  -12.07222   -6.45469
       O     1.53465  -12.63452   -7.19445
      H1     0.73929  -13.02863   -6.85917
       H    -5.94445  -19.41693  -16.91498
       O    -5.58276  -18.50788  -16.69227
      H1    -5.38611  -18.47523  -15.76577
       H    -6.99896  -17.52918  -14.03577
       O    -7.23051  -17.47849  -13.10520
      H1    -6.71081  -18.06448  -12.56703
       H    -0.69787  -18.85918   -6.26356
       O     0.10932  -19.21164   -6.65201
      H1    -0.02618  -19.75330   -7.44996
       H   -11.24056  -15.27986  -11.62596
       O   -11.18844  -15.06636  -10.69307
      H1   -10.44488  -15.48501  -10.23233
       H    -3.27254  -17.86337   -4.54100
       O    -2.34343  -17.89663   -4.78143
      H1    -2.07932  -17.09526   -5.27595
       H    -4.09703  -18.32658  -14.12630
       O    -4.05219  -17.42665  -14.47227
      H1    -3.17293  -17.07240  -14.27923
       H    -8.00632  -15.80346  -12.67057
       O    -8.09398  -14.81488  -12.66513
      H1    -7.90391  -14.55926  -13.56890
       H    -6.26044  -14.87338  -12.13215
       O    -5.29913  -14.64523  -12.00661
      H1    -5.35568  -13.71158  -12.26474
       H   -10.43863  -13.48282   -6.42361
       O   -10.48588  -12.51595   -6.31236
      H1    -9.76793  -12.29469   -5.70120
       H    -5.67682  -19.25946   -2.72156
       O    -6.05342  -19.09105   -1.86928
      H1    -6.62609  -18.32124   -1.87660
       H    -0.99041  -14.30648   -5.81079
       O    -0.57756  -13.37825   -5.65175
      H1    -1.27066  -12.84115   -6.10969
       H    -8.16017  -17.94315   -5.44357
       O    -7.69953  -17.15695   -5.24249
      H1    -7.39967  -16.88470   -6.08738
       H    -5.00735  -15.73700  -14.53052
       O    -5.66901  -15.26923  -15.07421
      H1    -5.09767  -14.46970  -15.15187
       H    -5.56552  -15.63641   -7.21786
       O    -6.35878  -16.18285   -7.51312
      H1    -6.50053  -15.69116   -8.32947
       H    -1.15694  -16.74105  -12.73810
       O    -1.15704  -17.53034  -13.24332
      H1    -0.57872  -18.01618  -12.61351
       H    -3.68868  -11.62058   -3.38558
       O    -3.75859  -12.10226   -4.20246
      H1    -4.51780  -11.67499   -4.61793
       H     0.48562  -15.07899  -13.83383
       O     0.85135  -15.60033  -14.56415
      H1     0.28561  -16.39711  -14.55203
       H    -9.55568  -18.88375   -9.48651
       O    -8.68023  -19.10704   -9.19656
      H1    -8.49756  -19.78970   -9.87523
       H    -5.36746  -18.69316  -10.41272
       O    -5.68868  -18.86763  -11.35204
      H1    -6.37414  -19.64245  -11.25031
       H    -5.82159  -11.87615  -13.95715
       O    -6.22318  -12.12507  -13.10343
      H1    -6.48439  -11.34490  -12.62015
       H     0.87831  -18.98396   -4.95836
       O     0.94462  -19.41774   -4.04900
      H1     0.20920  -19.09311   -3.50048
       H    -3.90484  -13.87219   -6.73838
       O    -4.08778  -14.81214   -6.55634
      H1    -4.30326  -14.85949   -5.61636
       H    -4.32118  -14.23322  -10.05342
       O    -3.46285  -13.81666   -9.78445
      H1    -3.69068  -13.18608   -9.04120
       H    -6.04936  -17.32966   -4.68139
       O    -5.16249  -17.42778   -4.31573
      H1    -4.95050  -16.56692   -3.94237
       H     0.34206  -13.98948  -11.44211
       O     0.05374  -14.24514  -12.35471
      H1    -0.34884  -13.51302  -12.83957
       H    -1.04185  -11.76158  -10.39303
       O    -0.17399  -11.73780   -9.91774
      H1     0.24994  -12.61167   -9.80985
       H    -2.59756  -15.51645   -6.61174
       O    -1.67521  -15.82373   -6.33486
      H1    -1.11286  -15.84444   -7.14019
       H    -2.75983  -11.54755   -7.56062
       O    -3.44986  -12.29352   -7.63803
      H1    -4.27023  -11.89998   -7.29929
       H    -2.22769  -17.33525  -16.58230
       O    -2.93203  -16.82237  -16.96693
      H1    -3.66974  -17.05867  -16.36673
       H     0.99364  -17.10164  -10.13802
       O     0.10880  -17.44828  -10.10317
      H1     0.35590  -18.26608   -9.66321
       H    -3.04448  -11.23580  -11.20802
       O    -2.55057  -12.03209  -11.48159
      H1    -2.84970  -12.77276  -10.91593
       H    -4.26842  -13.73730   -3.94224
       O    -4.57440  -14.62180   -3.73012
      H1    -4.86742  -14.51912   -2.81057
       H    -1.56917  -18.19964   -3.02314
       O    -1.02034  -18.23488   -2.22601
      H1    -1.20089  -19.07804   -1.77702
       H    -6.88346  -14.00598  -10.64345
       O    -6.98354  -14.30820   -9.73970
      H1    -7.90289  -14.60278   -9.71252
       H   -10.53911  -17.59643  -13.00147
       O    -9.78532  -18.18191  -13.05318
      H1    -8.96471  -17.68059  -12.90475
       H   -11.68260  -15.24337   -6.57274
       O   -10.72651  -15.28931   -6.63967
      H1   -10.44451  -15.61141   -5.78160
       H     1.23572  -15.86894   -7.33516
       O     0.55013  -15.61475   -7.99731
      H1     0.40513  -16.48571   -8.46487
       H     2.23540  -14.52651  -10.50694
       O     1.38897  -14.11534  -10.22304
      H1     1.10659  -14.58830   -9.38060
       H    -8.46802  -17.46790   -1.96399
       O    -7.64993  -16.94804   -2.13566
      H1    -7.75608  -16.37498   -2.93773
       H    -6.07748  -10.48042   -6.28702
       O    -5.78925  -11.20192   -6.84801
      H1    -6.39619  -11.28469   -7.62659
       H    -4.23705  -17.50038   -9.40017
       O    -4.77635  -18.22291   -8.95407
      H1    -5.41611  -17.78658   -8.41114
       H    -7.61096  -11.94455   -9.15308
       O    -6.99472  -11.19378   -9.30108
      H1    -7.42630  -10.50225   -8.80722

