144
frame 11 | Written by MDAnalysis XYZWriter (release 2.4.3)
       H    -7.26626   -9.73762    3.91724
       O    -6.63633   -9.53459    4.61060
      H1    -7.04906   -8.79855    5.10936
       H    -1.25267   -8.44079    0.49278
       O    -2.10962   -8.76844    0.81848
      H1    -2.12087   -8.53830    1.78923
       H    -3.83259   -6.22426    0.04782
       O    -4.13010   -7.13548    0.09761
      H1    -3.31176   -7.74616    0.23621
       H    -6.67884  -10.62094    0.43964
       O    -6.32785  -11.45836    0.32915
      H1    -6.45348  -11.68433   -0.64814
       H    -7.01748   -4.79899    5.08763
       O    -7.21128   -4.38764    4.25483
      H1    -6.48864   -3.83989    3.99257
       H    -0.96342   -5.60303    5.96482
       O    -0.51012   -6.08888    6.66226
      H1    -1.03366   -6.91361    6.69827
       H    -5.50864  -16.50673    6.36820
       O    -5.91015  -17.20487    5.86951
      H1    -5.50285  -17.15480    4.97478
       H    -9.49405  -12.26284    7.48121
       O    -9.54127  -12.37966    6.53613
      H1   -10.51123  -12.57585    6.41382
       H    -8.72993   -8.82720    1.85553
       O    -8.02626   -9.41209    2.10611
      H1    -7.23911   -8.85210    1.97379
       H    -5.14898  -10.06622    3.85510
       O    -4.34362  -10.62892    3.69724
      H1    -3.64058  -10.31091    4.25430
       H    -1.01802  -13.08724    4.71693
       O    -0.57414  -12.45427    5.26185
      H1     0.26736  -12.16432    4.97254
       H    -5.15553   -7.74276    3.74260
       O    -4.67312   -7.14025    4.36282
      H1    -4.52160   -6.42302    3.77194
       H    -7.17768   -7.31274   -0.92860
       O    -7.62167   -6.59166   -0.46720
      H1    -7.10717   -6.38405    0.29313
       H    -1.87694  -15.51915    9.14814
       O    -1.86870  -14.73624    8.57511
      H1    -2.54729  -14.54416    7.87029
       H    -5.76932   -8.44680   10.00246
       O    -6.35735   -8.58891    9.24822
      H1    -5.81013   -8.95257    8.57927
       H    -6.15591  -17.50159    3.21092
       O    -5.34107  -16.95626    3.07395
      H1    -5.51436  -16.05365    3.21713
       H    -4.18918  -12.32226    2.41751
       O    -4.00489  -13.26132    2.33051
      H1    -4.35248  -13.46993    1.45815
       H     1.16252   -7.89605    0.12228
       O     0.48118   -8.52066   -0.04901
      H1     0.99583   -9.36910   -0.12491
       H    -9.64077  -10.91079    5.35911
       O    -9.65699  -10.13815    4.70430
      H1    -8.89052  -10.17281    4.15362
       H    -0.56630  -10.21534    7.37317
       O    -1.23976  -10.93194    7.38919
      H1    -0.95334  -11.55261    6.65900
       H    -1.44625  -14.52578   -0.65736
       O    -2.28372  -14.13330   -0.86600
      H1    -2.24819  -13.59744   -1.67586
       H    -2.01452   -8.51133    5.27676
       O    -1.98634   -8.60175    6.20763
      H1    -1.54965   -9.40950    6.41474
       H    -3.67241  -12.95075    7.16649
       O    -3.69996  -13.85153    6.74415
      H1    -4.36254  -14.33819    7.21590
       H    -7.66157  -14.71438    3.67105
       O    -7.00203  -14.85538    4.32793
      H1    -7.10092  -15.69979    4.72104
       H    -5.69831   -7.28441   -2.30825
       O    -5.66318   -8.06475   -1.71129
      H1    -5.00745   -7.76765   -1.02484
       H    -1.33153  -10.49523    1.12367
       O    -0.79124  -11.25324    1.29624
      H1    -1.35093  -11.99684    0.88983
       H    -2.46216  -16.52998    2.23865
       O    -1.82449  -16.55904    2.92438
      H1    -1.93754  -15.74747    3.46659
       H    -3.93271   -9.14010    6.89402
       O    -4.81592   -9.54726    6.98992
      H1    -4.99939  -10.06883    6.19543
       H    -0.50112  -14.76455    7.37447
       O     0.16497  -14.68031    6.66958
      H1    -0.10340  -13.83137    6.24387
       H    -5.99932   -4.90037    1.86672
       O    -6.94294   -5.04903    1.66788
      H1    -7.18440   -4.97110    2.60555
       H    -4.35039  -11.43430    0.01423
       O    -3.44878  -11.59438   -0.22120
      H1    -3.41241  -12.56199   -0.32075
       H     0.80694   -8.86453    6.54953
       O     0.88953   -9.68719    6.06583
      H1     1.61864  -10.18437    6.48846
       H     0.87352  -12.35308    1.57477
       O     1.43750  -13.20040    1.70543
      H1     2.06510  -13.15322    0.96150
       H    -5.30558  -15.45919    0.47979
       O    -5.45394  -14.59441    0.14916
      H1    -6.17165  -14.21714    0.73750
       H    -1.48807   -7.70333    3.29681
       O    -2.15517   -8.39460    3.44496
      H1    -2.94213   -7.84027    3.52926
       H    -6.00073  -14.42696    8.40206
       O    -5.73431  -15.28900    8.10811
      H1    -5.47772  -15.62890    8.96695
       H    -7.63525  -12.94236    1.57713
       O    -8.03173  -13.76992    1.85834
      H1    -8.25897  -14.25650    1.04960
       H     0.84651   -9.81483    4.30965
       O     0.79636   -9.76948    3.30304
      H1     0.14248  -10.42329    3.04994
       H    -2.66450  -13.94775    3.59797
       O    -2.22956  -14.35018    4.41419
      H1    -2.90864  -14.16043    5.12784
       H    -4.90015   -4.77566    6.48548
       O    -5.75770   -5.31551    6.49765
      H1    -5.42236   -6.14690    6.19838
       H    -6.67050  -12.77160    5.33332
       O    -6.96444  -12.32210    6.11446
      H1    -7.89050  -12.61040    6.19296
       H    -5.45483  -12.31825    9.00363
       O    -6.35834  -12.62485    8.83642
      H1    -6.50726  -12.39414    7.89688
       H    -4.80196   -9.35467    2.23118
       O    -5.26482   -8.51260    2.07139
      H1    -4.75564   -8.11155    1.37081
       H    -8.45188   -8.08719    6.82941
       O    -8.59451   -7.92643    5.91687
      H1    -9.10582   -8.69850    5.62010
       H    -2.82154  -11.35967    8.37011
       O    -3.73231  -11.62013    8.42433
      H1    -4.20496  -10.92576    8.01604
       H    -0.38292   -5.96670    3.50627
       O    -0.32118   -6.47871    2.68541
      H1     0.52683   -6.95114    2.66520
       H    -2.38685  -10.93839   -1.74704
       O    -1.92794  -10.61735   -2.54025
      H1    -1.43703   -9.83247   -2.23106
       H    -3.77534   -4.74659    2.34726
       O    -4.54399   -4.72745    2.93238
      H1    -4.58682   -3.83658    3.31265

