144
frame 2 | Written by MDAnalysis XYZWriter (release 2.4.3)
       H    14.66793  -12.69170    3.94983
       O    13.85533  -12.50521    3.39226
      H1    13.17457  -13.16875    3.70653
       H     9.27838  -11.88856   10.90547
       O     9.85508  -12.63860   10.64183
      H1     9.28329  -13.39927   10.57055
       H    12.46212   -7.14356   11.16729
       O    11.47764   -7.11823   11.10225
      H1    11.25743   -6.18497   10.95323
       H    11.06149  -14.01108    3.53510
       O    11.77213  -14.41027    4.09271
      H1    11.78520  -15.34818    3.85289
       H     8.63426   -9.47018    6.93237
       O     8.09517   -9.40304    6.07495
      H1     8.60947  -10.04931    5.47574
       H    14.58552   -4.34523    2.52822
       O    13.91508   -4.85186    2.95754
      H1    14.51689   -5.56916    3.38169
       H    13.02162  -10.28447    0.13560
       O    12.16846   -9.89436   -0.18369
      H1    11.88948  -10.60064   -0.80724
       H    16.85499   -9.73970    0.24415
       O    16.64401   -8.86531    0.57742
      H1    15.93792   -8.88758    1.28146
       H    14.10395  -11.79136    1.90536
       O    14.26963  -11.66084    0.95246
      H1    15.06171  -12.16378    0.83425
       H     9.47671  -14.08818    5.95495
       O    10.30646  -14.13020    6.36940
      H1    10.97115  -14.38967    5.68871
       H    14.73626   -7.35266   11.88314
       O    14.08227   -7.38671   11.14869
      H1    14.29299   -6.74156   10.44467
       H    17.75068  -10.85109    2.91262
       O    17.28552  -11.02806    3.74870
      H1    16.50854  -10.45253    3.77839
       H    19.00845  -11.16821    8.55454
       O    18.20042  -11.00434    9.10010
      H1    18.23015  -11.72770    9.76651
       H    11.90190   -4.01374    4.80102
       O    12.55145   -4.42867    5.40463
      H1    13.03455   -5.01634    4.75671
       H    15.98725  -12.77802    6.08554
       O    15.89464  -12.91914    5.11609
      H1    16.55696  -12.27623    4.75704
       H    14.09821   -9.40988    6.41143
       O    14.54006  -10.11666    5.91555
      H1    15.19033  -10.49323    6.56980
       H    12.88129   -4.35633    7.40976
       O    13.60452   -3.94125    7.99494
      H1    14.00102   -3.26063    7.38396
       H    13.72670   -8.67089    2.96537
       O    14.65625   -8.72162    2.87207
      H1    15.04519   -8.19819    3.58340
       H    13.73690  -13.33617    9.85377
       O    13.63694  -12.48107    9.46798
      H1    12.76943  -12.43586    9.05529
       H    13.15306  -11.27323    4.00208
       O    12.43363  -10.65498    4.36342
      H1    12.97159  -10.16926    5.03327
       H    16.55590   -6.56657    4.33288
       O    15.65767   -6.94975    4.60607
      H1    15.82967   -7.36779    5.45439
       H    14.24171   -3.53452    5.40425
       O    14.70540   -2.72825    5.70664
      H1    15.67629   -2.85715    5.60898
       H    14.60232   -8.63171    9.84846
       O    15.03106   -9.07693    9.11204
      H1    14.50238   -9.80910    8.75182
       H    10.25057   -8.61728    4.46058
       O    10.67920   -7.74484    4.43066
      H1    10.86549   -7.60308    3.51996
       H     9.28310  -10.39963    3.17510
       O     9.47775  -10.70228    4.09104
      H1    10.48787  -10.77349    4.09453
       H    16.49640   -4.50739   10.09033
       O    17.05111   -3.69238   10.23475
      H1    17.66846   -3.82217   10.95038
       H    10.29872  -12.22875   12.66500
       O    10.93008  -11.66969   13.06463
      H1    11.65725  -11.61155   12.35028
       H    19.59032  -10.48919    6.01508
       O    19.24454   -9.80643    5.35951
      H1    18.52741  -10.27323    4.84956
       H    14.58738   -4.96246    8.94286
       O    15.23917   -5.53160    9.41203
      H1    15.69434   -5.97981    8.66707
       H    12.05745   -4.00708    2.92734
       O    11.24886   -3.58111    3.16280
      H1    10.60469   -4.30472    3.29468
       H    15.29510  -12.26689    7.98559
       O    16.00899  -11.77228    7.54220
      H1    16.76025  -11.50064    8.16034
       H     8.31521   -5.47044    3.86968
       O     9.21893   -5.39160    4.15130
      H1     9.48516   -6.22394    4.64644
       H    14.64889  -15.03962   11.08883
       O    15.26541  -14.38961   10.76360
      H1    16.05566  -14.95432   10.45858
       H    12.06059   -7.58053    7.02498
       O    12.52332   -8.03923    6.31837
      H1    11.82904   -7.87294    5.55190
       H    18.23650   -8.61828    1.87999
       O    18.90472   -8.48157    2.53169
      H1    19.55111   -7.95201    2.02538
       H    15.94270  -15.84145    3.79575
       O    15.11759  -15.27084    3.70378
      H1    15.25865  -14.59783    4.42093
       H    13.72270  -10.78483   12.34856
       O    13.39828  -11.60518   11.99987
      H1    13.69604  -11.70658   11.05777
       H    18.44814   -6.88823    3.69812
       O    18.20231   -6.15135    4.29648
      H1    18.47612   -5.32743    3.84029
       H    18.84570   -8.39405    6.66039
       O    18.67435   -7.82454    7.39830
      H1    18.90775   -6.97246    7.11275
       H    11.99757   -7.41222    1.03086
       O    11.45767   -7.94183    1.58141
      H1    11.57093   -8.83841    1.21633
       H     9.90266   -6.65456    8.47981
       O    10.76111   -7.12591    8.41847
      H1    11.00376   -7.22115    9.37544
       H    18.55659   -7.25202   11.08570
       O    18.45760   -6.49999   11.69222
      H1    17.91505   -6.74723   12.45942
       H    15.45176   -7.93120    7.95290
       O    15.88719   -7.24251    7.41227
      H1    16.79771   -7.60588    7.51914
       H     8.86143  -12.35255    3.73302
       O     8.86873  -13.30842    3.54004
      H1     8.30049  -13.37252    2.75723
       H    15.76443  -11.24209   11.20975
       O    16.20059  -10.37189   11.29306
      H1    16.12270   -9.97367   10.41303
       H    18.97996   -8.25486    9.18158
       O    19.00546   -8.39458   10.10398
      H1    18.45834   -9.12709   10.27413
       H    10.49081  -12.42851    9.07824
       O    11.12067  -12.32636    8.34643
      H1    10.89503  -12.96634    7.64903
       H    10.25259   -8.98627    8.30419
       O     9.69788   -9.80741    8.23712
      H1    10.34098  -10.54150    8.04461

