144
frame 4 | Written by MDAnalysis XYZWriter (release 2.4.3)
       H     9.32184   18.48959   11.51437
       O     8.85860   17.91452   10.80945
      H1     8.00128   17.67645   11.16595
       H    13.58457   20.19113   11.76665
       O    14.17216   19.42471   11.69923
      H1    13.66724   18.84763   11.08570
       H    12.85202   19.39149   14.93349
       O    12.58946   18.83608   14.19201
      H1    13.20856   19.04011   13.48222
       H    10.55733   13.15013   16.53551
       O    10.08874   12.96330   17.29261
      H1    10.12758   13.79967   17.82232
       H     7.59035   15.22713    8.63852
       O     7.60151   14.36568    9.11070
      H1     7.14454   13.76861    8.53092
       H    12.62146   13.73560   15.72051
       O    13.36914   13.44074   16.29087
      H1    13.06251   13.28132   17.17359
       H    18.22896   11.20951   11.35830
       O    18.70881   11.44853   12.18080
      H1    18.91427   10.70175   12.72529
       H     8.59645   12.01435   17.19631
       O     7.87426   11.35333   17.01079
      H1     8.33933   10.57547   16.64843
       H     9.18438    8.97100   13.98197
       O     9.73107    9.15814   13.19250
      H1     9.59101    8.38835   12.62852
       H    12.25329   11.64527    9.05334
       O    11.34089   11.29801    8.99040
      H1    10.87973   11.87994    9.68880
       H    14.67227   16.40961    7.61802
       O    14.95567   16.90458    8.40886
      H1    15.75091   16.42745    8.75698
       H    15.41212   10.25858    9.35069
       O    15.45758    9.91851   10.23914
      H1    15.50105    8.98110   10.10135
       H    12.53115    7.93721   14.68366
       O    11.97303    7.77374   13.90257
      H1    11.28554    8.47524   13.94588
       H     7.08911   16.95019   12.93331
       O     7.87304   16.69437   13.42153
      H1     7.93712   15.73284   13.50001
       H    13.77199   10.31468   11.05367
       O    13.03774   10.74627   11.51638
      H1    12.28035   10.49604   10.91211
       H    10.12429   16.62672   10.63574
       O    10.71424   15.95472   10.44809
      H1    11.62032   16.33372   10.64728
       H    11.19567   16.77778    8.66977
       O    11.34127   17.53490    8.13897
      H1    10.60754   18.16184    8.31628
       H    17.08965   14.51936    9.19141
       O    17.06248   15.45628    9.39773
      H1    16.87335   15.44183   10.30665
       H    11.03996   14.89590   14.16541
       O    11.11319   13.95855   14.51905
      H1    11.57239   13.46693   13.83664
       H    14.74893   15.28263   17.63345
       O    15.35428   15.48293   18.41006
      H1    14.95988   16.11375   19.01173
       H     9.41649   13.70421   14.34977
       O     8.49817   13.86475   13.96232
      H1     7.79209   13.54782   14.60554
       H    10.08843   14.45350    5.70552
       O    10.52330   13.58827    5.42667
      H1    11.42844   13.61577    5.79483
       H    16.95956   17.05541   16.88273
       O    16.51056   17.87605   17.09277
      H1    15.61889   17.57764   17.04318
       H    17.42682   12.12648    8.73755
       O    16.88952   12.85156    8.30613
      H1    16.94685   12.65939    7.37135
       H    14.17170   13.08452    5.97537
       O    13.25180   13.01163    5.79162
      H1    13.11061   12.10162    5.57232
       H    18.33459   14.21241   13.57921
       O    17.66718   13.47672   13.58001
      H1    18.21667   12.71176   13.19520
       H    14.55925   10.65998   14.20158
       O    14.23296    9.79061   13.89923
      H1    13.58535   10.03065   13.20892
       H    12.62739   18.82261    8.11688
       O    13.46449   19.33577    8.11760
      H1    14.05231   18.55484    8.11423
       H    11.63265    7.66283   11.39666
       O    10.96639    7.00382   11.10937
      H1    10.80247    6.51847   11.92111
       H     5.90238   11.26221   10.75249
       O     6.60302   10.58994   10.82271
      H1     7.30824   10.89656   11.38654
       H    15.04767   12.09342    8.49853
       O    14.42504   11.42133    8.35470
      H1    14.48529   11.12183    7.46038
       H    17.33168   14.24384   15.76232
       O    17.52304   14.97151   16.41026
      H1    16.77486   14.97695   17.01563
       H     8.55147   12.05673   13.13208
       O     8.49312   11.49130   12.41081
      H1     9.06769   10.77684   12.69740
       H    10.24529   11.57085    7.71475
       O     9.62133   11.56890    6.93313
      H1     9.90200   12.38064    6.41893
       H    12.98970   12.37952   19.62123
       O    13.30340   12.50966   18.72079
      H1    14.25881   12.53462   18.70293
       H    15.19608   16.01260   12.91625
       O    14.30394   15.78778   13.14892
      H1    14.12842   14.97635   12.70821
       H    17.13885   12.05331   18.40241
       O    16.19777   11.87397   18.25495
      H1    16.12681   11.89841   17.29757
       H    10.18793   17.25546   15.69509
       O     9.91877   17.74751   16.46474
      H1     9.11584   18.30330   16.22926
       H    10.17881   13.98247   10.59061
       O    10.34245   13.01824   10.87429
      H1     9.49586   12.67710   11.18221
       H    18.40520    9.90062    9.43584
       O    17.95814   10.73954    9.81366
      H1    17.04236   10.52998   10.06727
       H    13.78481   16.45927   11.53903
       O    13.34573   16.86999   10.79643
      H1    13.87527   16.73730   10.03415
       H    14.25534   16.41394   15.12655
       O    13.98712   16.72802   16.03287
      H1    13.28626   17.35201   15.80809
       H    15.64892    8.90693   14.14432
       O    16.41457    8.31611   14.34031
      H1    16.42489    7.64222   13.62338
       H    15.93865   12.54851   14.82603
       O    15.25836   12.02188   15.23695
      H1    14.59231   12.67012   15.58122
       H    12.12874   13.61409   11.77437
       O    12.94201   13.55857   12.32402
      H1    12.99396   12.57873   12.17141
       H    10.24071   16.70713   13.22385
       O    10.91588   16.64381   13.87091
      H1    11.70554   16.99431   13.44411
       H    17.05624   16.91898   12.61354
       O    16.70972   16.10210   12.13167
      H1    17.12119   15.41867   12.60143
       H    14.68636    8.05210   15.21021
       O    13.94029    7.75451   15.72390
      H1    13.62218    8.34889   16.36374

