144
frame 2 | Written by MDAnalysis XYZWriter (release 2.4.3)
       H   -10.82895  -16.13578   -7.17463
       O   -10.01756  -16.50012   -7.62405
      H1   -10.33510  -17.36593   -7.93859
       H    -9.64269  -19.45489   -6.82374
       O    -9.77337  -19.34383   -5.86164
      H1   -10.69064  -19.10837   -5.72227
       H   -15.03306  -19.48396    1.14248
       O   -15.09292  -19.09155    0.23229
      H1   -14.25184  -18.60311    0.14410
       H   -18.99713  -17.90959   -3.48447
       O   -19.54965  -17.25001   -3.85712
      H1   -20.13893  -17.03923   -3.14828
       H   -10.62083  -16.50935   -3.56359
       O   -10.09722  -16.02207   -4.27755
      H1    -9.25291  -16.51690   -4.44192
       H   -18.10907  -15.68188  -10.53054
       O   -18.97805  -15.70706  -10.91206
      H1   -18.74119  -15.91509  -11.84946
       H   -16.71445  -11.49030    0.26361
       O   -17.14509  -11.27876   -0.58209
      H1   -18.02353  -11.70815   -0.39161
       H   -18.50657  -12.33154  -10.89199
       O   -17.63562  -12.03478  -11.15727
      H1   -17.57822  -11.09699  -10.97721
       H   -12.96709  -19.03481   -5.51576
       O   -12.19844  -19.39845   -5.06005
      H1   -12.67809  -20.20024   -4.78644
       H   -18.86797  -11.62400    2.32958
       O   -19.55226  -11.12861    1.76685
      H1   -19.40926  -10.24743    2.12586
       H   -14.07623  -16.06378   -8.06292
       O   -14.90443  -16.26546   -7.62228
      H1   -15.60945  -15.95792   -8.21681
       H   -17.81440  -15.24414   -8.26247
       O   -17.13194  -15.46484   -8.90067
      H1   -16.82015  -14.58796   -9.20336
       H   -16.96260  -15.64491   -3.46638
       O   -17.60087  -15.14095   -3.95062
      H1   -18.35128  -15.68248   -3.92692
       H   -17.81045  -13.23080    3.73214
       O   -17.64484  -12.26170    3.61251
      H1   -16.76065  -12.10162    4.05026
       H   -15.64644  -16.24272   -0.70355
       O   -15.34973  -15.80126    0.07317
      H1   -15.76369  -16.03787    0.85841
       H    -9.46512  -18.69160   -0.72587
       O    -9.70772  -18.13029   -1.56567
      H1   -10.68188  -17.95617   -1.65524
       H   -16.74668  -16.36512    3.20121
       O   -16.00441  -16.59043    2.70713
      H1   -16.21246  -17.44671    2.36118
       H   -16.73648  -18.67749   -7.95351
       O   -17.60433  -18.27353   -7.79112
      H1   -17.47953  -17.52204   -8.37895
       H   -16.40607  -12.26352    2.23998
       O   -15.65613  -12.50901    1.59629
      H1   -14.85321  -12.15237    2.02546
       H   -16.06750   -8.49502   -5.04403
       O   -15.37711   -7.97488   -5.52327
      H1   -15.44535   -8.32019   -6.40041
       H   -19.95680  -12.21822   -1.00705
       O   -19.22874  -12.81502   -1.16662
      H1   -18.83220  -12.53714   -2.00936
       H   -17.71447  -10.96096   -5.34836
       O   -17.27147  -10.82719   -4.48280
      H1   -17.68932  -10.05427   -4.18399
       H   -18.12765   -9.71869   -0.48493
       O   -18.84900   -9.08555   -0.61327
      H1   -18.52218   -8.58959   -1.41516
       H   -15.02705  -12.52420   -1.47665
       O   -14.13430  -12.25250   -1.39517
      H1   -13.61854  -13.09002   -1.51894
       H   -18.68121  -13.75831    0.24641
       O   -18.29264  -14.07791    1.10516
      H1   -17.36148  -14.05277    0.83803
       H   -18.77990  -20.30264    4.69523
       O   -19.13011  -19.38620    4.92051
      H1   -19.54770  -19.03783    4.14009
       H   -14.98776  -19.55499   -9.49842
       O   -15.24484  -19.26747   -8.64391
      H1   -14.70676  -18.45671   -8.48520
       H   -19.51922  -15.56801   -6.71606
       O   -18.89804  -14.82172   -6.78407
      H1   -18.31480  -14.92153   -6.03607
       H   -16.23573  -12.30184   -4.41747
       O   -15.66557  -13.07166   -4.54955
      H1   -16.17336  -13.86299   -4.74870
       H   -12.66534  -18.11975  -10.21637
       O   -13.44490  -17.56526  -10.32174
      H1   -13.26326  -17.23750  -11.22730
       H   -17.99204  -17.70898    5.09385
       O   -17.73638  -16.75022    5.08463
      H1   -16.91320  -16.64279    5.49330
       H   -12.82053  -11.59969   -3.10472
       O   -12.04668  -11.96423   -3.56674
      H1   -11.25972  -11.70493   -3.02718
       H   -19.18367   -7.84409   -4.91121
       O   -18.25174   -7.88175   -5.04495
      H1   -18.07086   -6.97267   -5.41413
       H   -12.69298  -14.95321    0.08220
       O   -12.73374  -14.20226    0.70034
      H1   -13.69483  -13.93113    0.70802
       H   -12.51339  -14.95570   -6.00202
       O   -12.17218  -15.83502   -6.03445
      H1   -11.42187  -15.87647   -5.49396
       H   -13.23441  -11.50856   -6.53304
       O   -13.43212  -10.62796   -6.79883
      H1   -14.14773  -10.57316   -7.45694
       H   -19.07750  -15.66157    0.98876
       O   -19.52156  -16.54659    1.00056
      H1   -19.60088  -16.74611    0.04804
       H   -15.48325  -17.93979   -5.42694
       O   -14.68826  -17.60455   -5.02916
      H1   -14.24755  -17.01317   -5.71152
       H   -15.41816  -11.30814   -9.09138
       O   -15.77639  -10.53675   -8.56250
      H1   -16.53285  -10.80170   -8.07312
       H   -14.47548  -13.88679   -9.32477
       O   -15.26206  -13.35180   -9.45203
      H1   -15.53456  -13.47651  -10.32967
       H   -12.36670  -17.51264   -1.68299
       O   -12.02042  -17.39575   -2.56693
      H1   -11.98510  -18.26417   -2.98037
       H   -13.95395  -16.52560    3.71118
       O   -13.17643  -16.64568    4.26324
      H1   -13.29576  -15.85502    4.90002
       H   -14.90775  -15.29652   -2.78391
       O   -15.28249  -16.11248   -2.55152
      H1   -14.96747  -16.76913   -3.17097
       H   -12.24829  -14.50674   -9.47545
       O   -12.92144  -14.89418   -8.87870
      H1   -12.85637  -14.49115   -8.00551
       H   -19.00891  -11.52020   -7.43512
       O   -18.20226  -10.97918   -7.22681
      H1   -18.28971  -10.12086   -7.69031
       H   -11.88153  -13.79872   -2.87222
       O   -12.39971  -14.39154   -2.26851
      H1   -12.81741  -15.16023   -2.76094
       H   -12.43620  -17.05261    0.80487
       O   -12.98425  -17.13394    0.01219
      H1   -13.86981  -16.72816    0.18837
       H   -14.06874  -13.20113   -5.23187
       O   -13.19336  -13.31275   -5.61515
      H1   -12.62910  -12.75636   -4.95272

