144
frame 2 | Written by MDAnalysis XYZWriter (release 2.4.3)
       H    16.21427   12.76597    3.83408
       O    15.96905   12.34434    3.00454
      H1    16.85279   12.11419    2.55328
       H    18.37628    3.56800   -7.39519
       O    19.03560    3.15000   -6.85116
      H1    18.45433    2.77987   -6.18557
       H    16.01230    8.38782   -7.00148
       O    15.98260    9.30293   -7.34758
      H1    15.33205    9.76127   -6.81579
       H    18.11633   10.70563    1.31252
       O    18.29350   11.62540    1.40530
      H1    18.99162   11.71750    2.00877
       H    19.09677    5.07525  -10.23061
       O    18.54131    5.87992  -10.14537
      H1    17.86204    5.62854   -9.54908
       H    17.79852   13.65254   -6.97219
       O    17.19034   14.07917   -6.35164
      H1    16.47156   13.38979   -6.27210
       H    12.46930    3.86095   -6.54301
       O    12.36027    3.92187   -5.55530
      H1    13.18715    4.43177   -5.30425
       H    15.06432    9.91818   -4.10978
       O    15.59321   10.73480   -4.24773
      H1    15.68773   11.12757   -3.37842
       H    19.96095   14.86110   -2.86596
       O    19.44258   15.33132   -3.52058
      H1    18.76451   15.80683   -2.95403
       H    12.98343    8.41771    1.43488
       O    13.13524    7.45575    1.40927
      H1    13.70997    7.34546    0.66550
       H    18.66078   10.25205   -4.07533
       O    18.12243    9.82029   -3.43333
      H1    17.23495    9.82448   -3.76755
       H    15.98555    2.84646   -3.13512
       O    15.20231    3.15693   -3.63843
      H1    15.51829    4.00090   -4.04972
       H    15.33253   11.59976   -0.88450
       O    14.83655   11.00315   -0.30921
      H1    14.85745   11.30172    0.60732
       H    11.48837    8.15843   -1.34906
       O    11.61165    9.04153   -0.99035
      H1    10.86767    9.19442   -0.39160
       H    19.36317   10.47573   -8.65027
       O    19.80533    9.82485   -9.20918
      H1    19.18286    9.27517   -9.75657
       H    15.36160    4.53936   -5.98170
       O    15.85406    5.05581   -5.33582
      H1    16.50655    5.67271   -5.73915
       H    15.12539    1.35888    0.72290
       O    15.42917    1.97339    0.04890
      H1    16.37765    1.90707    0.00166
       H    17.49977    8.89816    2.31180
       O    17.88768    8.52628    3.08018
      H1    18.75229    8.35506    2.74473
       H    18.65303   11.35344   -6.50163
       O    18.18587   11.21300   -7.33072
      H1    17.54983   10.49874   -7.18739
       H    16.25392    9.48292    0.14720
       O    16.95502    9.04935    0.53788
      H1    16.89881    8.08173    0.35138
       H    12.80263   10.85697   -3.18793
       O    12.65357    9.90507   -3.39885
      H1    12.07689    9.67994   -2.70865
       H    17.16059   11.68601   -2.77429
       O    16.44094   12.12702   -2.27780
      H1    16.46097   13.05864   -2.64361
       H    18.10544   12.47927   -8.43832
       O    17.84979   13.09028   -9.11423
      H1    18.62153   13.51680   -9.46155
       H    17.87853    0.60406    0.61103
       O    18.00410    0.80286   -0.33489
      H1    18.81689    1.35503   -0.39114
       H    18.99645    4.31427   -1.68927
       O    18.94736    5.31238   -1.58111
      H1    18.65261    5.62703   -2.44740
       H    11.97232    5.91832   -1.90819
       O    11.14953    6.43222   -2.07197
      H1    11.44851    6.75755   -2.93341
       H    18.65877    2.23182   -3.08335
       O    19.05060    2.68775   -2.29688
      H1    19.99845    2.34955   -2.41089
       H    16.16009    8.72137  -10.21861
       O    16.92592    8.30321  -10.60853
      H1    16.90611    8.18685  -11.55858
       H    15.01935   11.80811   -5.47720
       O    14.94328   12.53918   -6.10187
      H1    14.59970   12.16499   -6.94745
       H    18.35909    6.92286   -6.69011
       O    17.68071    6.88823   -5.98834
      H1    18.09262    7.15144   -5.16904
       H    12.76467    9.56547   -5.11610
       O    13.37707    9.35052   -5.80995
      H1    13.67756    8.47716   -5.64208
       H    17.69553    3.38004    2.40720
       O    17.80795    4.32984    2.53038
      H1    17.71514    4.41716    3.49884
       H    17.05113    1.08851   -5.44049
       O    17.83345    1.45908   -5.03446
      H1    18.54537    0.86398   -5.13858
       H    19.71072    7.07292   -3.61380
       O    18.75658    7.05580   -3.55822
      H1    18.43746    7.91426   -3.22130
       H    14.21087    3.29739   -7.81950
       O    15.01804    3.44851   -7.26635
      H1    15.26834    2.48910   -7.06156
       H    12.62193   13.03294   -1.76848
       O    13.10520   12.30741   -2.07432
      H1    13.28848   11.73403   -1.27824
       H    16.30100    3.98312   -8.10172
       O    17.15992    4.26461   -8.53154
      H1    17.11470    3.83892   -9.46206
       H    15.53082    6.52358   -0.22880
       O    14.69781    6.80442   -0.51849
      H1    14.28578    6.05946   -0.97802
       H    14.11132    9.18533   -2.57924
       O    14.75867    8.49100   -2.61391
      H1    14.64000    8.06665   -1.73478
       H    14.89962    6.35959   -4.68035
       O    13.98531    6.74469   -4.58667
      H1    14.12943    7.45700   -3.94972
       H    11.87683    8.16625   -8.65320
       O    12.65328    7.67897   -8.96729
      H1    13.20203    7.39581   -8.18902
       H    19.37144   10.72443   -1.86379
       O    19.72512   11.30866   -1.21633
      H1    19.14923   11.51231   -0.44318
       H    19.75674    8.16756   -8.32896
       O    19.74001    7.25643   -8.01430
      H1    19.30510    6.68250   -8.66477
       H    18.83665    6.93510    0.65053
       O    19.80705    7.03694    0.80357
      H1    20.22053    6.15516    1.02387
       H    16.06987    6.94101   -8.91288
       O    15.25626    6.55269   -8.58561
      H1    15.27804    5.69086   -8.88661
       H    14.13880    4.51284   -2.31107
       O    13.46523    4.85107   -1.75828
      H1    13.34473    4.36181   -0.91307
       H    17.45132    5.46046    1.11548
       O    17.46115    6.06498    0.38014
      H1    18.16230    5.81671   -0.19652
       H    13.15309   12.94414   -5.04977
       O    12.44508   13.58728   -5.06173
      H1    12.09442   13.69884   -4.13472

