144
frame 4 | Written by MDAnalysis XYZWriter (release 2.4.3)
       H   -11.61033   17.39096   -0.84264
       O   -11.62135   16.98699    0.02649
      H1   -10.89228   16.33000    0.12055
       H    -1.55818   17.00369   -3.64326
       O    -2.09790   16.72708   -2.90540
      H1    -1.95106   17.39112   -2.23290
       H     0.30940   14.25010   -3.23630
       O     0.17013   14.91874   -2.52793
      H1    -0.44093   15.59378   -2.90865
       H    -2.20749   13.46874    2.32226
       O    -2.44227   14.33172    2.69401
      H1    -3.29634   14.62860    2.35751
       H    -4.82839   18.45829    4.61695
       O    -5.66307   18.00377    4.39339
      H1    -5.61706   17.88639    3.41596
       H    -7.65885   16.20138    6.24443
       O    -8.15681   15.60703    5.60633
      H1    -7.52772   15.26883    5.01560
       H    -3.50446    9.38083   -0.58701
       O    -4.28194    8.96833   -0.20133
      H1    -4.84494    8.88765   -0.99943
       H    -4.01087    9.14488   -4.61643
       O    -4.16248    9.88284   -3.97902
      H1    -4.91617    9.50302   -3.55042
       H    -7.88067   12.03419   -4.97254
       O    -7.61201   12.96201   -4.90235
      H1    -7.64108   13.34530   -5.76781
       H    -8.85632   10.90788    0.02472
       O    -9.76226   11.26711    0.12574
      H1   -10.45135   10.56542    0.06469
       H     0.75771   12.68949   -0.21260
       O     1.34402   12.00816   -0.51820
      H1     2.21244   12.34795   -0.80622
       H    -8.01825    8.46888    0.60134
       O    -8.42475    7.61730    0.65469
      H1    -7.70168    6.94056    0.58320
       H    -8.78758   12.37195    2.71112
       O    -8.38798   11.65710    2.24547
      H1    -9.12591   11.50049    1.56496
       H    -4.25639    9.98538    1.37903
       O    -3.89012   10.53376    2.07243
      H1    -4.52038   11.16337    2.37407
       H    -2.76526   11.06038   -1.35952
       O    -2.54048   10.33323   -1.88545
      H1    -3.30824   10.19296   -2.54051
       H    -9.76785   18.51021   -5.39961
       O    -9.58508   17.63235   -5.19158
      H1    -8.62639   17.47171   -5.31948
       H    -5.63196    8.25335    4.00162
       O    -6.07645    8.56975    3.22984
      H1    -5.50621    9.33173    2.96736
       H    -7.60557   16.32961   -2.00934
       O    -6.72681   16.37012   -1.53642
      H1    -6.37581   15.49052   -1.25152
       H    -4.56426   16.20732   -5.27323
       O    -4.88892   17.13597   -5.33214
      H1    -4.94000   17.41166   -4.36759
       H    -5.16707   11.40951   -3.74521
       O    -5.71707   11.95328   -3.20434
      H1    -6.30683   12.44038   -3.78866
       H    -0.77921   15.64616    2.12828
       O    -0.00157   16.18155    1.99390
      H1     0.14333   16.78846    2.67830
       H   -10.07089   12.53888   -0.99878
       O   -10.50205   13.36811   -1.34193
      H1   -10.08035   13.58949   -2.20258
       H    -0.14222   14.76497    0.41418
       O    -0.55043   14.04646   -0.05403
      H1    -0.34063   14.28747   -1.00039
       H    -9.41716   17.83433   -3.34670
       O    -9.46659   17.95848   -2.39627
      H1    -9.65002   18.92029   -2.36349
       H    -7.54783   15.70661   -6.54204
       O    -7.38848   16.60055   -6.28015
      H1    -6.46775   16.71130   -6.07898
       H    -5.64198   14.69075    2.36810
       O    -4.95793   15.24289    1.91428
      H1    -5.32593   16.15695    1.74700
       H    -5.49044   12.09256    3.87933
       O    -5.67303   12.52745    3.00497
      H1    -6.60273   12.33471    2.79175
       H    -6.89371   12.37557   -0.68918
       O    -7.12760   11.44873   -0.78686
      H1    -6.81287   11.34868   -1.65601
       H    -0.99606   19.11174    1.37355
       O    -0.51645   18.64465    0.69600
      H1    -0.61338   17.69124    0.84469
       H   -10.48305   13.76079    3.73177
       O    -9.69160   14.11652    3.31981
      H1   -10.04474   14.38909    2.44052
       H    -1.36761    8.21898    2.93351
       O    -1.37055    8.70013    2.06989
      H1    -2.21768    9.19148    2.13701
       H    -1.46870   11.43249    3.44919
       O    -1.14352   11.80728    2.58169
      H1    -1.06153   11.09782    1.94377
       H    -3.39033   12.26682    0.65542
       O    -3.04231   12.61632   -0.18963
      H1    -2.17863   12.99505    0.08002
       H    -1.54535   18.85038   -0.60223
       O    -2.25340   18.76912   -1.31966
      H1    -2.93963   19.34237   -0.92651
       H    -5.28744   13.23143   -1.33822
       O    -5.55858   14.04041   -0.94012
      H1    -5.00714   14.19971   -0.17181
       H    -6.47147   17.60805    1.25226
       O    -5.53693   17.83227    1.61075
      H1    -5.11091   18.55282    1.08898
       H    -3.83459   17.48786   -2.56615
       O    -4.66552   17.92723   -2.72947
      H1    -5.32755   17.44833   -2.19739
       H   -11.85407   13.26330   -0.31222
       O   -12.62432   13.11317    0.26210
      H1   -13.17593   13.92270    0.32857
       H    -2.98965   19.41337   -5.26635
       O    -2.73575   18.54677   -5.60467
      H1    -3.51025   17.97380   -5.50855
       H    -7.43978   17.02515   -0.19205
       O    -7.95451   17.22428    0.64917
      H1    -8.39690   18.05948    0.45194
       H    -2.79397   14.93739   -6.08520
       O    -2.80800   15.05718   -7.03852
      H1    -1.99977   15.53094   -7.29119
       H     0.12781   11.72159   -2.49578
       O    -0.47454   11.67977   -3.28266
      H1    -1.27824   11.36894   -2.83249
       H    -4.26756   13.99777   -3.89368
       O    -3.64340   14.56768   -4.29717
      H1    -3.26171   15.05364   -3.54114
       H    -6.85657    8.32968   -2.23053
       O    -5.94007    8.50245   -2.41856
      H1    -5.66201    7.64037   -2.81308
       H    -8.09599    9.45717   -3.89428
       O    -8.32690   10.14409   -4.52272
      H1    -7.82616    9.90082   -5.36492
       H   -10.52400   13.70683   -4.27920
       O    -9.80819   14.41323   -4.28822
      H1    -8.99537   13.95411   -4.51675
       H    -9.94669   14.63138    0.01135
       O    -9.68988   15.14200    0.73897
      H1    -9.13906   15.89138    0.45802
       H    -3.74619   15.48527    5.29498
       O    -2.77332   15.32495    5.14133
      H1    -2.57977   15.00614    4.29455

