144
frame 7 | Written by MDAnalysis XYZWriter (release 2.4.3)
       H    -6.05846   -9.00898    5.79936
       O    -5.98124   -8.33867    6.56576
      H1    -6.91677   -8.11016    6.73742
       H    -7.06659   -7.13333    9.77285
       O    -8.01272   -7.20299    9.69105
      H1    -8.22073   -8.14754    9.66391
       H     1.83337  -13.51038    7.94322
       O     2.27698  -13.01918    8.66403
      H1     2.61557  -12.15863    8.27338
       H    -1.21129   -6.01671    5.97530
       O    -0.52726   -6.66564    6.19263
      H1    -1.04958   -7.39097    6.55477
       H     0.65355  -12.11368   11.38107
       O     0.89747  -13.02758   11.16045
      H1     1.21756  -13.00526   10.26301
       H    -8.29231  -12.06932    6.46009
       O    -8.72917  -11.92533    5.62224
      H1    -9.27020  -12.71841    5.47566
       H    -9.56930  -10.03125    9.69507
       O    -8.88867   -9.75251    9.06267
      H1    -8.32312  -10.46937    8.79412
       H    -8.73795  -12.50606   12.07228
       O    -8.25315  -12.42751   12.92601
      H1    -7.43935  -11.85023   12.79320
       H    -4.26759   -5.53575   12.79027
       O    -4.24950   -5.17457   11.88616
      H1    -4.68791   -5.79736   11.27465
       H    -5.88079  -12.78917   13.68013
       O    -5.41916  -13.53211   14.20573
      H1    -5.74003  -14.38855   13.85945
       H    -0.22351   -7.70643   13.14938
       O     0.64756   -7.39238   13.15477
      H1     0.92220   -7.24009   12.26896
       H    -3.55748  -10.80921    5.37829
       O    -3.24746   -9.94872    5.01269
      H1    -3.19368  -10.14481    4.05946
       H    -0.04255  -13.37078    5.36353
       O     0.64614  -13.11428    6.01583
      H1     1.39218  -12.91061    5.45383
       H    -2.24150   -6.71558    9.65681
       O    -1.63731   -7.12537   10.25977
      H1    -1.13093   -6.42917   10.73279
       H    -5.36625   -6.94620    5.43284
       O    -4.82698   -6.31262    4.88877
      H1    -5.31243   -6.15613    4.05967
       H    -2.78124   -8.69183   13.21593
       O    -1.89668   -8.28452   12.93391
      H1    -2.12063   -7.89880   11.97809
       H    -1.58719  -11.78213   14.75963
       O    -2.00032  -10.91302   14.74861
      H1    -1.30749  -10.39618   15.19847
       H    -4.85734  -10.75354   16.60888
       O    -4.67594  -10.35244   15.75690
      H1    -3.82536  -10.68193   15.45080
       H    -4.13705  -15.68190   10.43110
       O    -3.71127  -15.71862   11.24478
      H1    -2.88380  -16.22925   11.20411
       H    -4.94896   -7.51439   10.97844
       O    -5.30296   -7.09488   10.23188
      H1    -4.74406   -7.47820    9.52838
       H    -3.98018  -12.29301   10.53288
       O    -4.49710  -12.52189   11.33125
      H1    -4.80753  -13.42200   11.13985
       H    -1.68515   -4.25214   10.83696
       O    -0.88804   -4.57968   11.23213
      H1    -1.13198   -4.68693   12.15143
       H     0.03386  -10.70018    8.57976
       O    -0.48589  -11.27050    8.02640
      H1    -0.02360  -11.77662    7.36806
       H    -0.08518   -9.60794   12.39785
       O     0.48862  -10.17529   11.80818
      H1     1.45697   -9.99757   12.07118
       H    -5.33573  -11.46129   12.34519
       O    -5.95648  -10.86181   12.86267
      H1    -5.50757  -10.75748   13.70016
       H    -1.91450   -9.51790    5.99792
       O    -1.25798   -9.16473    6.62787
      H1    -0.89483   -9.95640    7.14200
       H    -4.19311  -15.36220    6.46709
       O    -4.00965  -14.50733    6.05191
      H1    -4.76002  -14.47753    5.44002
       H    -6.96560  -12.75180    4.87677
       O    -6.39585  -13.49681    4.56949
      H1    -6.68677  -14.23150    5.13534
       H    -0.59056  -14.04696   12.83673
       O    -0.80095  -14.50488   13.67958
      H1    -1.73661  -14.73242   13.69349
       H     3.07937   -7.64406    7.75216
       O     2.77974   -8.23033    8.45686
      H1     1.86645   -8.09434    8.66420
       H     0.26533   -9.27339   10.53260
       O     0.32613   -8.85263    9.60389
      H1    -0.32622   -8.17022    9.78406
       H    -3.03881   -8.46141    8.05510
       O    -3.90072   -8.46012    8.49002
      H1    -4.50365   -8.56537    7.73796
       H    -2.51149   -4.51099    8.06235
       O    -2.97897   -5.23781    8.49831
      H1    -3.81313   -5.19302    8.00632
       H     0.31858   -9.57004    5.94936
       O     1.18788   -9.82032    5.49951
      H1     1.74293  -10.13130    6.22686
       H    -5.35837   -8.97251   12.65419
       O    -4.67929   -8.31368   12.45999
      H1    -4.65925   -7.71980   13.17560
       H     3.64413  -11.18210    6.85499
       O     2.85810  -10.86924    7.35163
      H1     3.08224  -10.04955    7.79537
       H    -2.24480   -6.94911    3.17968
       O    -3.10936   -7.43234    3.25851
      H1    -3.60367   -7.09338    4.00227
       H    -8.44138  -14.78622    8.12861
       O    -7.54675  -14.74558    7.80540
      H1    -7.03543  -15.33926    8.35040
       H     0.35705  -10.66961    4.02318
       O     0.31240  -11.39270    3.33589
      H1    -0.47936  -11.17190    2.85440
       H     0.46125   -5.87610    7.48450
       O     1.10658   -5.12410    7.64902
      H1     1.34549   -5.20913    8.59543
       H    -1.62515  -12.84678    4.84237
       O    -1.59840  -13.82989    4.68498
      H1    -2.03736  -14.16882    5.51097
       H    -6.00295   -3.88396    6.29981
       O    -5.93978   -4.48388    7.02566
      H1    -5.62014   -5.25958    6.50190
       H    -4.25434  -11.50954    7.97704
       O    -4.62636  -11.66346    7.06450
      H1    -4.57275  -12.59494    6.92257
       H    -7.24044  -13.02704    8.31919
       O    -7.25063  -12.07510    8.24100
      H1    -6.39702  -11.93623    7.73691
       H    -5.92683  -10.57186    3.65056
       O    -6.14835   -9.63378    3.92226
      H1    -5.36273   -9.10132    3.69759
       H    -8.91541   -7.58115    8.04521
       O    -8.98233   -7.41202    7.10891
      H1    -9.36685   -8.23528    6.82706
       H    -2.17378  -11.35365    9.21173
       O    -3.16105  -11.23514    9.30664
      H1    -3.25314  -10.24027    9.23440
       H     0.49454  -15.70884   10.77124
       O    -0.38079  -16.03502   11.05073
      H1    -0.84781  -15.28532   11.41288

