144
frame 11 | Written by MDAnalysis XYZWriter (release 2.4.3)
       H    13.25902   10.16049  -13.11401
       O    13.40250   11.05392  -13.19993
      H1    13.97084   11.36646  -12.51549
       H    13.09906   12.42434  -15.61315
       O    13.64812   13.09151  -16.07795
      H1    14.46418   12.96576  -15.56277
       H    17.18711   14.89142  -15.98639
       O    17.19853   14.85331  -15.00369
      H1    16.60513   14.17365  -14.76040
       H    15.60606   19.25898  -17.11183
       O    15.04099   19.07337  -17.84023
      H1    15.17900   19.84546  -18.46000
       H     8.73312   14.73280  -10.37300
       O     8.02043   14.21256  -10.81617
      H1     8.46648   13.55582  -11.41559
       H    16.70271   13.69267   -4.94720
       O    16.13969   14.39185   -4.54975
      H1    15.55945   13.97503   -3.89947
       H    17.46378   16.71667   -7.04575
       O    18.18272   17.16130   -6.53880
      H1    18.45488   16.58531   -5.81522
       H    18.34552   17.19563   -3.91847
       O    18.81340   16.35865   -4.05098
      H1    18.17300   15.69723   -3.83060
       H    14.19755   13.44342   -9.49284
       O    14.59725   14.29215   -9.70622
      H1    13.82291   14.80940   -9.99022
       H    15.31354   13.31650  -10.81324
       O    15.70961   12.69963  -11.45819
      H1    16.62605   12.65625  -11.14249
       H    15.91322   16.99648   -9.41287
       O    15.91974   16.54069   -8.54998
      H1    15.44521   15.73502   -8.83915
       H    10.27380   13.40193   -6.78471
       O    10.72360   14.22941   -6.93092
      H1    11.02508   14.67341   -6.14154
       H    16.68445   16.40610  -14.54410
       O    16.59432   17.22835  -14.01529
      H1    15.69178   17.57775  -14.28255
       H    13.14914   17.60984  -13.22219
       O    12.60962   17.38865  -12.41087
      H1    11.75318   17.37264  -12.76583
       H    12.47469   17.15085  -18.42674
       O    11.98576   17.00956  -17.60350
      H1    11.17829   16.61570  -17.89351
       H    10.83447   13.72303   -9.01604
       O    10.87289   13.37702   -9.95181
      H1    10.67642   12.42550   -9.90594
       H    12.84669   11.11698   -9.80949
       O    13.72043   11.44173   -9.63386
      H1    13.67313   11.64130   -8.72991
       H     7.66167   16.80049  -12.95346
       O     7.68149   16.03105  -13.54632
      H1     7.42244   15.28519  -12.96273
       H    13.07001   18.34417   -8.65760
       O    13.10840   18.87310   -9.50783
      H1    12.58213   18.41294  -10.13774
       H     8.41440   17.39434  -10.83494
       O     7.96176   18.09554  -11.33103
      H1     8.66468   18.75273  -11.41057
       H    17.87275   17.40716  -11.09222
       O    16.94296   17.13612  -11.24755
      H1    16.85392   17.14445  -12.20280
       H    11.10256   18.42740   -3.91619
       O    11.10530   18.21042   -4.88455
      H1    11.76483   18.88838   -5.20929
       H    14.91471   15.49051  -19.65003
       O    15.53680   16.17526  -19.38601
      H1    15.14885   16.55720  -18.58657
       H    12.31021   18.86803  -16.90686
       O    12.12844   19.34359  -16.11290
      H1    11.36835   18.89826  -15.79307
       H    16.29643   12.32416  -14.42848
       O    15.53152   12.88171  -14.23422
      H1    15.52844   13.10748  -13.32441
       H    10.20586   15.45380  -15.93416
       O     9.71958   15.23291  -16.78525
      H1     8.78726   15.19591  -16.60982
       H     5.84763   19.66244   -9.34272
       O     6.86192   19.69882   -9.41278
      H1     7.11338   18.97472  -10.03611
       H    14.01025   13.40457   -7.01760
       O    13.33863   12.71880   -7.04709
      H1    12.55040   13.24623   -7.24120
       H    10.27597   16.39852   -9.11491
       O     9.30695   16.18626   -9.23600
      H1     8.88784   16.65556   -8.47083
       H    13.19765   14.72939  -15.53590
       O    13.03295   15.69047  -15.42660
      H1    12.62662   15.98691  -16.25499
       H    11.09006   15.45492  -14.28603
       O    10.34129   16.10221  -14.23799
      H1     9.72741   15.69067  -13.69104
       H    18.84544   11.09921  -11.11087
       O    18.69855   12.03976  -11.08410
      H1    19.43348   12.46651  -11.57249
       H    17.23128   18.83669  -15.05518
       O    17.22076   19.49603  -15.78153
      H1    17.93110   20.12600  -15.50040
       H    12.14634   12.52350  -12.92224
       O    11.71560   13.38979  -12.99036
      H1    12.09275   13.93561  -12.32453
       H    14.74314   18.83662  -10.62271
       O    15.38825   19.31629  -11.15924
      H1    16.11732   18.73127  -11.31445
       H    18.75777   13.36300   -9.40450
       O    19.12245   13.65248   -8.57444
      H1    19.83818   14.24464   -8.78237
       H     9.43379   18.92811  -15.47144
       O    10.00487   18.84192  -14.69140
      H1    10.11820   17.90911  -14.66031
       H    14.97982   15.14184   -5.71932
       O    14.30272   15.34429   -6.39835
      H1    14.77865   15.98846   -6.90869
       H     9.97806   15.21023   -4.80479
       O    10.90100   15.43933   -4.65351
      H1    11.09920   16.40981   -4.82654
       H    13.32889   18.94883   -5.88356
       O    13.99896   18.22033   -5.85474
      H1    13.55722   17.44571   -6.24859
       H     9.49670   18.45780   -6.23537
       O     9.12221   18.25823   -7.10077
      H1     8.28502   18.69956   -7.11821
       H    11.74178   14.90290  -10.46653
       O    12.18198   15.72732  -10.24497
      H1    12.32960   16.34464  -10.95217
       H    13.74858   18.71045  -15.13891
       O    14.14340   17.89601  -14.71816
      H1    13.76749   17.12222  -15.11811
       H    16.80805   18.36718   -3.62603
       O    17.55458   18.99794   -3.38455
      H1    17.02162   19.84433   -3.44992
       H    15.13276   17.33939   -4.69350
       O    15.71451   17.07392   -3.94761
      H1    15.96004   16.10980   -4.08647
       H    17.06296   15.42877  -18.41447
       O    17.69457   14.84310  -17.98906
      H1    18.58937   15.15050  -18.17282
       H    17.84282   11.99494   -6.14435
       O    17.75004   12.94343   -6.16872
      H1    18.07743   13.24987   -7.04541
       H    12.07697   16.27976   -7.22095
       O    11.77157   17.16319   -7.51307
      H1    10.84570   17.03830   -7.28658

