144
frame 5 | Written by MDAnalysis XYZWriter (release 2.4.3)
       H     9.16579    5.46414  -10.31527
       O     9.86412    5.56120   -9.68342
      H1     9.50684    5.34421   -8.83395
       H     8.20175    8.24376  -11.96654
       O     9.18162    8.39167  -11.68247
      H1     9.30889    8.72602  -10.78920
       H    12.03972    9.24038  -14.25990
       O    12.02364    9.98990  -14.84526
      H1    12.82136   10.54079  -14.65639
       H    12.77453    1.41093  -17.06116
       O    13.32677    1.84497  -16.36693
      H1    13.80280    1.10072  -15.97989
       H     6.08610    0.22537  -19.50367
       O     5.49823    0.44215  -18.73069
      H1     4.68025    0.79408  -19.11903
       H    13.28090    6.41772  -15.70375
       O    13.73284    7.00680  -16.34574
      H1    14.30186    6.42580  -16.82826
       H    12.34453    4.45312  -12.74644
       O    12.68203    4.56638  -11.87562
      H1    12.36846    5.40115  -11.59393
       H     3.85954    5.71346  -19.01366
       O     3.11852    5.45084  -18.48017
      H1     2.56851    6.20232  -18.57261
       H     9.55484   -1.35303  -18.02729
       O     9.37402   -0.71491  -17.34543
      H1     9.58688   -1.16275  -16.51937
       H     1.64079    2.76033  -14.72936
       O     0.88694    3.32313  -14.71705
      H1     0.18544    2.92198  -14.15807
       H     4.27080    8.66701  -11.78398
       O     5.09994    8.29527  -11.36703
      H1     5.53529    9.22589  -11.27478
       H     1.25410    3.22164  -18.73856
       O     1.62838    3.30362  -19.65849
      H1     2.31192    3.95049  -19.59438
       H     7.69096    8.39439  -16.58166
       O     8.68320    8.31529  -16.46229
      H1     9.01459    8.34591  -17.37688
       H    11.13661    6.13279  -14.68827
       O    11.99662    5.64497  -14.70259
      H1    11.70796    4.64716  -14.80832
       H     3.52203    8.75484  -16.71456
       O     3.76830    8.50705  -17.65552
      H1     4.12717    9.28308  -18.09673
       H     7.53752   12.77104  -15.54714
       O     7.22878   13.42941  -14.94755
      H1     7.00859   14.18755  -15.51336
       H     5.61997    3.70291  -13.74803
       O     5.84720    2.98962  -14.35518
      H1     6.69382    2.58452  -14.14516
       H     8.91095    4.38833  -14.06727
       O     9.22626    4.80892  -13.27062
      H1     9.64172    5.63860  -13.65324
       H     7.91460    3.94624  -15.91817
       O     8.64503    3.29933  -15.86237
      H1     8.21594    2.44409  -15.74654
       H     2.22413    8.02234  -18.01578
       O     1.41973    7.88512  -18.50238
      H1     0.77989    7.40508  -17.91527
       H     4.78675    5.55268  -12.79169
       O     5.04490    4.82225  -12.25983
      H1     4.35096    4.48189  -11.71696
       H     6.99973    5.93188  -10.16021
       O     7.16642    5.25175  -10.85933
      H1     6.32296    5.13454  -11.35516
       H     2.78676    5.93246  -13.87186
       O     1.98537    5.52186  -13.48563
      H1     1.78412    4.78391  -14.13427
       H    10.06647    5.18249  -18.36528
       O     9.36951    4.71910  -17.92044
      H1     9.72968    4.38604  -17.09460
       H     6.89066    2.06910  -18.87155
       O     7.49394    2.75432  -19.18996
      H1     7.63646    3.26111  -18.37192
       H     9.50482    9.89303  -19.64237
       O     9.90469    9.24637  -19.01019
      H1    10.31115    9.86205  -18.43792
       H     8.27870    2.12839  -11.31884
       O     8.76295    2.10482  -12.21033
      H1     8.92743    3.03203  -12.29915
       H     7.21224    0.22688  -15.20795
       O     6.48710   -0.08335  -15.81346
      H1     7.06427   -0.34838  -16.56326
       H     1.12874    8.67841  -15.05549
       O     1.93269    9.16787  -14.95415
      H1     2.14053    9.02622  -14.06282
       H     4.49225    1.87928  -13.73910
       O     3.87838    1.46627  -13.16239
      H1     3.77404    2.04786  -12.38938
       H     7.61850    5.72509  -17.10955
       O     6.97074    5.34926  -16.49487
      H1     6.61481    6.09921  -16.02634
       H     6.48110    2.20010  -10.28708
       O     7.13769    2.79341   -9.89068
      H1     7.04831    3.68836  -10.30220
       H    10.65177   10.39393  -14.01577
       O     9.84698   10.72105  -13.50500
      H1     9.62495   10.05988  -12.85306
       H     9.26452    8.08054  -14.79363
       O     9.78840    7.51486  -14.20424
      H1     9.87436    7.94509  -13.31297
       H     9.09883   -0.09560  -14.72032
       O     8.89679    0.80143  -14.74052
      H1     9.08328    1.13273  -13.85731
       H     5.72279   11.46166  -18.48859
       O     5.04371   10.73074  -18.62666
      H1     5.44123   10.07316  -19.19193
       H    12.09267    2.42617  -15.19529
       O    11.52369    2.94382  -14.53625
      H1    10.61467    2.60004  -14.79214
       H    12.12101    0.32913  -18.58253
       O    11.46189    1.00973  -18.21507
      H1    10.68663    0.48228  -17.94044
       H     4.94286    4.76820  -16.06374
       O     4.00323    4.78907  -15.90691
      H1     3.74627    5.05099  -16.78632
       H     5.70125   10.60851  -14.75750
       O     5.39614    9.80950  -14.28584
      H1     6.00365    9.69226  -13.63190
       H     5.23474    8.09130  -16.74506
       O     5.94858    7.90535  -16.11313
      H1     5.78113    8.46047  -15.38758
       H     7.44122    6.73706  -13.32023
       O     6.99372    7.61893  -13.10779
      H1     6.30696    7.49075  -12.42015
       H    13.34190    7.20030  -17.95802
       O    13.33637    7.20568  -18.91850
      H1    12.49297    6.84198  -19.22524
       H    10.41847   11.58845  -17.14277
       O    11.21079   11.04220  -17.30408
      H1    11.48004   10.51423  -16.50224
       H     4.30482    1.43231  -16.22420
       O     3.47707    1.97275  -16.26258
      H1     3.75820    2.79950  -15.90246
       H    11.66854    1.69484  -13.18521
       O    11.91154    0.75309  -13.01521
      H1    12.16578    0.74569  -12.05777
       H     8.82473   11.01395  -14.97029
       O     8.21935   10.82608  -15.66528
      H1     8.44124    9.93779  -15.94717
       H     4.57183    6.96405  -14.95249
       O     4.19657    7.10920  -14.05489
      H1     4.62398    7.92242  -13.73090

