144
frame 4 | Written by MDAnalysis XYZWriter (release 2.4.3)
       H     5.96811   -4.99550  -14.80084
       O     6.54815   -4.27217  -14.41114
      H1     6.07739   -3.46247  -14.36304
       H     1.75088    3.50232  -11.11627
       O     2.44403    2.91278  -10.71944
      H1     2.63117    3.28898   -9.82573
       H    -1.15317    1.51126   -7.92510
       O    -0.35255    1.93859   -8.26433
      H1    -0.45710    1.96017   -9.22230
       H     6.11743    0.65753  -19.33787
       O     5.19110    0.67939  -19.03721
      H1     4.67945    1.07155  -19.77431
       H     8.13678   -0.82778  -19.17418
       O     7.93163   -0.86182  -18.22795
      H1     8.47561   -1.60980  -17.92350
       H     9.68916    1.89316   -7.14200
       O     8.77975    1.53137   -7.37710
      H1     8.67435    1.79513   -8.24136
       H     2.25469    2.72604  -14.34204
       O     1.44957    3.17558  -14.04412
      H1     0.85183    2.42569  -13.85772
       H     0.40882    3.14781  -17.82690
       O     1.08983    3.09436  -18.58717
      H1     1.51587    3.93179  -18.75546
       H     4.60334    3.70108   -8.40273
       O     3.64497    3.58666   -8.53143
      H1     3.26402    2.99955   -7.86590
       H    -1.50849    1.15766  -10.58331
       O    -1.13765    1.97970  -10.98708
      H1    -1.94096    2.48343  -10.94727
       H     4.97795    0.65097   -9.52005
       O     5.54997    0.79598  -10.27932
      H1     4.93217    1.07700  -11.03141
       H     6.30841    3.27641  -12.83440
       O     6.39329    2.61178  -13.54691
      H1     7.22224    2.14066  -13.38500
       H     9.71363    4.39133  -14.31849
       O     9.80750    4.83801  -13.49341
      H1     9.57677    5.72546  -13.65974
       H     8.28798    3.37632  -16.03985
       O     9.05099    3.04454  -15.59384
      H1     8.72164    2.60554  -14.80959
       H     1.67646    5.70468   -9.98307
       O     1.00869    5.39803  -10.60421
      H1     1.43797    5.51519  -11.49343
       H     1.51384   -0.60865  -16.10555
       O     1.78500   -0.69820  -17.04594
      H1     2.26144    0.12962  -17.23633
       H    10.43140   -0.79656  -13.87836
       O    10.66079   -1.67622  -14.15950
      H1    11.59652   -1.59801  -14.53761
       H     4.75171    4.63190  -12.55865
       O     4.98876    4.19524  -11.71743
      H1     4.19871    3.95398  -11.19763
       H     4.40575   -1.48045  -13.30946
       O     5.37066   -1.64820  -13.54752
      H1     5.43720   -1.05494  -14.33333
       H     7.13894    6.03139   -9.94047
       O     7.24304    5.36898  -10.68531
      H1     6.40080    5.01020  -10.96842
       H     7.04026   -3.60549   -8.91572
       O     7.27714   -3.51760   -9.84321
      H1     7.09891   -2.60637  -10.18380
       H     2.62810   -1.14042  -11.66160
       O     2.96324   -1.77138  -12.30018
      H1     3.09320   -2.61388  -11.90205
       H     2.66378    5.64394  -13.44428
       O     1.77192    5.76879  -13.10268
      H1     1.18504    5.12295  -13.55064
       H    -0.12486    0.36711  -14.27291
       O    -0.57919    1.15840  -14.02287
      H1    -1.08373    1.00711  -13.19589
       H    10.31334    2.84542  -11.01179
       O    10.73239    2.97068  -11.88894
      H1    10.25110    3.67463  -12.32468
       H     0.68696    0.27728   -9.84356
       O     1.40230    0.15997  -10.45422
      H1     1.95860    0.94426  -10.48913
       H     5.59478    0.74686  -16.73041
       O     5.99306    0.10498  -16.15094
      H1     6.70922   -0.29643  -16.68184
       H     5.62180    5.20195   -6.60366
       O     6.16213    4.53841   -7.07206
      H1     6.37652    3.89277   -6.39869
       H     4.71664    1.84747  -13.00010
       O     4.12669    1.37054  -12.38990
      H1     3.58853    2.08262  -12.00877
       H     7.60054    5.04456  -17.44596
       O     7.06406    4.52286  -16.82225
      H1     6.78564    5.18760  -16.16358
       H     7.14462    1.96732   -9.98888
       O     7.91427    2.51471   -9.78560
      H1     7.64712    3.42661   -9.88219
       H    -1.33977    3.23719  -16.36284
       O    -0.46618    3.64637  -16.45342
      H1    -0.03099    3.47932  -15.60474
       H     2.14134    1.03635   -6.43489
       O     2.18595    1.46086   -7.29265
      H1     1.27010    1.63239   -7.46273
       H     1.94714   -0.73741  -14.07579
       O     1.14736   -1.08137  -14.45813
      H1     0.74974   -1.80294  -13.95585
       H     8.67806    0.19729  -12.38300
       O     8.90935    0.96300  -12.93747
      H1     9.56868    1.41643  -12.32896
       H     9.73551   -2.15349   -9.63323
       O     9.84138   -2.11191  -10.60752
      H1     8.95776   -1.98923  -10.93866
       H     9.46013   -2.28144  -15.40690
       O     8.68421   -2.65526  -15.92782
      H1     8.20039   -3.32643  -15.49806
       H     5.00547    4.27187  -17.02156
       O     4.11290    4.17879  -16.60702
      H1     3.49101    4.57128  -17.22764
       H     1.40350   -3.49008  -12.89170
       O     0.45740   -3.34081  -13.07570
      H1     0.29595   -3.98862  -13.74222
       H     6.10670    7.43593  -15.87569
       O     6.50657    6.72499  -15.32869
      H1     6.92588    7.17690  -14.61762
       H     6.94107    6.93838  -11.57907
       O     6.60435    7.61239  -12.17056
      H1     5.64608    7.61873  -12.09599
       H     4.15317    0.81529  -15.13515
       O     3.51481    1.49038  -15.19600
      H1     3.84583    2.19541  -15.75926
       H     6.93563   -0.58014  -10.95863
       O     7.40731   -0.99794  -11.70770
      H1     6.67252   -1.31511  -12.34774
       H     3.16987   -1.38283  -16.67262
       O     3.93164   -1.91525  -16.38762
      H1     4.76141   -1.35336  -16.45837
       H     3.07291    5.17738   -8.45598
       O     2.62543    6.05242   -8.41947
      H1     1.80232    5.96585   -7.92548
       H     3.98812    4.75790  -14.87504
       O     4.26139    5.28754  -14.12530
      H1     4.80906    6.00942  -14.48487
       H     4.59721   -0.14276   -7.50915
       O     3.92581   -0.12458   -8.21898
      H1     3.29353    0.50706   -7.83440
       H     3.12156   -2.10527   -8.52312
       O     2.86933   -3.01762   -8.29417
      H1     2.31561   -3.38015   -8.99757

