144
frame 0 | Written by MDAnalysis XYZWriter (release 2.4.3)
       H    -5.51197   -8.80408    5.63032
       O    -6.10040   -8.15842    5.24421
      H1    -6.87330   -8.66249    5.05066
       H    -7.45684   -7.81567    2.44221
       O    -8.03462   -7.11317    2.06419
      H1    -7.99618   -7.35725    1.09573
       H    -7.64857   -9.06462    9.17356
       O    -8.63460   -8.96743    9.26155
      H1    -8.89016   -9.86621    9.36881
       H    -6.83146   -4.69838    5.73485
       O    -7.77100   -4.78291    5.80449
      H1    -8.13918   -4.56671    4.96934
       H   -14.40791   -8.98513    7.45707
       O   -14.94279   -9.15423    8.22591
      H1   -15.11174   -8.26861    8.54693
       H    -6.74579  -13.62325    6.46300
       O    -6.75737  -12.75679    6.04413
      H1    -7.67470  -12.42927    6.08814
       H    -9.93120   -8.03652    2.49154
       O   -10.55659   -7.99888    3.22577
      H1   -10.87180   -8.90870    3.39261
       H   -10.53733  -11.22140    9.50559
       O    -9.72928  -11.49899    9.14550
      H1    -9.84332  -11.04228    8.26695
       H    -8.16917  -11.80755   10.59523
       O    -7.46616  -11.95151   11.27793
      H1    -7.59440  -11.41892   12.10428
       H    -9.26408   -5.07585    2.82187
       O    -9.20123   -4.41820    3.51217
      H1    -9.21400   -3.60282    2.97181
       H    -6.80873   -6.78044   11.35909
       O    -6.35876   -6.06508   10.92118
      H1    -6.01321   -6.51679   10.13806
       H   -12.50596   -6.31326   10.44987
       O   -11.91164   -6.89745   10.93317
      H1   -11.41030   -7.40073   10.34238
       H    -9.69841  -12.85108    4.48271
       O    -9.19491  -12.41115    3.77613
      H1    -9.08718  -13.02569    3.02752
       H   -11.81834  -12.90876    0.26137
       O   -11.12565  -12.47985   -0.25557
      H1   -11.47285  -11.56095   -0.32633
       H   -13.14196   -4.17477    9.59917
       O   -13.28805   -5.15293    9.33663
      H1   -12.65653   -5.17323    8.59269
       H    -5.24659  -10.19080    7.17995
       O    -4.98513  -10.47687    6.28647
      H1    -5.47140  -11.34726    6.26180
       H   -10.66062   -4.02461    4.33986
       O   -11.13730   -3.45602    5.03603
      H1   -11.39304   -4.09504    5.78008
       H    -3.91283   -6.72848    7.48408
       O    -3.75443   -7.35148    8.15057
      H1    -3.28274   -8.05764    7.76543
       H    -5.58871   -6.13149    5.28454
       O    -5.07481   -5.30766    5.23633
      H1    -5.05235   -4.92560    4.36833
       H    -8.14804   -2.97007    6.14247
       O    -8.68016   -2.18448    6.34827
      H1    -9.60241   -2.37855    6.11140
       H    -8.46367   -5.27136   -0.43969
       O    -8.93026   -4.49050   -0.16542
      H1    -8.23732   -3.96279    0.29156
       H   -11.43433  -10.48885    4.97597
       O   -11.15141  -10.52585    4.03737
      H1   -10.52484  -11.29903    3.95996
       H   -11.70422  -15.94775    3.00839
       O   -10.73713  -15.74280    3.00153
      H1   -10.61877  -15.10232    3.78756
       H   -11.44597  -14.00101    5.96437
       O   -10.61296  -13.88815    5.60242
      H1    -9.99350  -14.39866    6.10739
       H    -5.52037  -11.68781    0.92076
       O    -5.93558  -11.40426    1.72796
      H1    -5.77594  -12.13234    2.39042
       H   -10.25060  -11.65599    6.46066
       O   -10.18350  -10.73577    6.60018
      H1    -9.42275  -10.49193    6.01596
       H   -13.64773   -5.95356    5.02277
       O   -14.16686   -5.21093    5.40336
      H1   -13.74024   -4.72024    6.16244
       H    -8.65744  -10.27107    4.23577
       O    -8.25058   -9.63215    4.85058
      H1    -8.86171   -8.92134    5.03193
       H    -3.29071  -10.23072    6.66393
       O    -2.39556   -9.97522    6.94915
      H1    -2.25943  -10.55905    7.71132
       H    -6.27314  -13.22870    4.33980
       O    -5.91143  -13.53762    3.47178
      H1    -6.56313  -14.12585    3.14371
       H    -8.64172   -8.01392   -1.28489
       O    -8.09494   -7.42228   -0.70140
      H1    -7.21507   -7.60412   -1.01240
       H    -8.69308   -6.41231    5.50782
       O    -9.55400   -6.89771    5.51104
      H1    -9.71308   -7.21924    4.57457
       H    -8.22261   -8.26306   10.77581
       O    -8.21730   -7.84924   11.64579
      H1    -8.65001   -6.97597   11.56551
       H   -14.22605  -10.51146    3.34988
       O   -13.57251  -11.09349    2.83804
      H1   -12.73198  -10.99799    3.27531
       H   -12.08423   -9.13156    6.98206
       O   -12.72116   -9.38639    6.27501
      H1   -12.80844   -8.60970    5.76504
       H   -13.37640  -10.39933   -0.75635
       O   -12.46529  -10.12164   -0.43437
      H1   -12.46001  -10.26843    0.47480
       H    -4.86558   -8.63499    8.73018
       O    -5.62724   -9.23744    8.71257
      H1    -5.29484  -10.09190    9.05681
       H   -11.87962   -5.65952    0.80090
       O   -11.25198   -5.27831    1.44052
      H1   -10.55640   -5.00266    0.83790
       H    -3.54710   -5.00452    5.80402
       O    -2.73795   -4.86600    6.40066
      H1    -2.38200   -4.01101    6.27511
       H    -4.21186   -8.53092    1.70328
       O    -3.34406   -8.14096    1.64851
      H1    -3.05629   -8.38329    0.75968
       H    -9.26828  -13.49215    9.30113
       O    -9.01952  -14.40494    9.58308
      H1    -8.31796  -14.63410    8.96535
       H    -7.77603  -12.27474    0.98333
       O    -8.41518  -13.00070    1.04387
      H1    -9.11651  -12.80611    0.42337
       H   -12.59471   -7.37818    3.80841
       O   -13.36138   -7.56528    4.36613
      H1   -14.00986   -8.08053    3.89831
       H    -5.74935   -9.71788    2.32985
       O    -5.92576   -8.77388    2.48648
      H1    -5.67670   -8.62661    3.42169
       H   -10.19734   -8.40087    8.30177
       O   -11.12658   -8.28695    8.37580
      H1   -11.24317   -7.49636    7.84701
       H    -5.94672  -11.93084   10.31706
       O    -5.31706  -11.96902    9.49145
      H1    -5.36520  -12.80473    9.02628
       H   -11.00694   -5.92681    6.45847
       O   -11.43359   -5.47225    7.22352
      H1   -10.63758   -5.13321    7.67225
       H    -7.03881   -5.59957    1.85271
       O    -6.43067   -4.89730    1.70226
      H1    -5.97402   -5.09375    0.88796

