144
frame 10 | Written by MDAnalysis XYZWriter (release 2.4.3)
       H   -13.77356  -11.85183    8.50996
       O   -14.00138  -12.13816    7.61833
      H1   -14.46595  -11.36293    7.30582
       H   -14.76146  -12.55040   -0.30355
       O   -14.78673  -13.04252   -1.14482
      H1   -15.69692  -12.84823   -1.49288
       H   -17.21224  -12.00443    0.34633
       O   -17.29981  -11.11802   -0.02879
      H1   -16.90139  -10.55483    0.65015
       H   -18.07084  -19.66268    5.50250
       O   -18.46482  -18.90140    5.95946
      H1   -18.34976  -19.14866    6.88855
       H   -17.78053  -18.25340    8.83223
       O   -17.61044  -19.22387    8.75015
      H1   -18.28750  -19.61170    9.29805
       H    -9.24697  -18.28329    2.67952
       O    -8.48769  -18.93020    2.62308
      H1    -8.50121  -19.32759    3.46667
       H    -8.88700  -11.89010    6.06370
       O    -9.66433  -12.10367    5.56066
      H1   -10.35023  -12.36977    6.19867
       H   -15.55721  -18.04229   11.69801
       O   -16.26645  -17.72589   12.23926
      H1   -15.98480  -17.63668   13.14780
       H   -17.33675  -15.84822    8.28777
       O   -18.09068  -16.40727    8.22034
      H1   -18.46103  -16.09818    7.34970
       H   -17.59893  -10.22906    8.77498
       O   -17.33587   -9.51525    8.11810
      H1   -17.16981   -8.58320    8.49038
       H   -17.08752  -15.39057    3.92968
       O   -17.41546  -14.59012    3.50944
      H1   -16.74409  -13.89690    3.66899
       H   -10.84367  -12.22845    0.47231
       O   -11.13828  -12.07606    1.39802
      H1   -10.36577  -11.59505    1.73731
       H    -9.92172  -14.69619    6.77901
       O    -9.79409  -15.58234    7.12835
      H1   -10.34003  -15.74081    7.92699
       H   -16.72459  -18.95939    0.92683
       O   -15.79287  -18.86797    0.74648
      H1   -15.41025  -18.60573    1.66591
       H   -11.69482  -19.27409    1.05080
       O   -12.52925  -19.26611    1.52876
      H1   -12.36989  -19.89641    2.25621
       H   -15.40161  -18.26902    3.78598
       O   -14.79443  -18.48141    3.11596
      H1   -14.51966  -19.36164    3.15111
       H   -12.47953  -19.04083    6.82289
       O   -11.84115  -18.32507    6.90110
      H1   -11.80079  -17.80699    6.02900
       H   -15.28349  -13.13017    8.02604
       O   -15.91388  -13.76214    8.39966
      H1   -15.42070  -14.24878    9.12296
       H   -11.90029  -16.21790   11.42283
       O   -12.03922  -16.74797   12.18983
      H1   -11.81502  -16.19345   12.96996
       H   -13.24301  -12.79287    1.78331
       O   -14.04195  -12.96806    1.29579
      H1   -13.98184  -13.88009    1.14627
       H   -11.43302  -17.14911    2.15643
       O   -10.50952  -17.10484    2.31768
      H1   -10.06933  -16.61343    1.56300
       H   -11.09162  -16.47421    4.08399
       O   -11.44954  -16.40893    4.94633
      H1   -10.72089  -16.05976    5.45021
       H   -17.36986  -11.14692    3.77639
       O   -18.29775  -11.25589    3.44124
      H1   -18.78564  -11.56442    4.20529
       H   -15.33770  -14.44315   12.50180
       O   -14.79046  -14.02795   13.17760
      H1   -14.91903  -14.41351   14.04448
       H   -12.11909  -10.64300    3.68592
       O   -12.95684  -10.94763    3.22811
      H1   -13.47952  -11.54581    3.80299
       H   -13.08118  -17.28585    7.87526
       O   -13.79704  -16.97246    8.43513
      H1   -14.07123  -17.86811    8.81831
       H   -18.08472  -14.10153    1.47003
       O   -18.00834  -13.77068    0.55318
      H1   -18.87398  -13.95661    0.17733
       H   -18.79081   -9.89073    2.20518
       O   -19.19625   -9.00345    1.92108
      H1   -20.04841   -9.35588    1.56324
       H   -15.66549   -9.25746    2.40812
       O   -15.54323  -10.17108    2.00035
      H1   -14.57671  -10.19216    1.76280
       H   -16.93779  -15.86055    0.28480
       O   -17.20026  -16.65359   -0.17760
      H1   -16.61950  -17.35238    0.15757
       H   -10.70469  -14.36852   10.05966
       O   -10.61770  -13.44026   10.41403
      H1   -11.29178  -13.34234   11.12611
       H   -15.60882  -11.43304    3.24762
       O   -15.51350  -11.99347    4.04979
      H1   -15.57831  -11.42854    4.84214
       H   -17.36974  -12.73489    8.84519
       O   -18.00676  -12.10726    9.16119
      H1   -17.79177  -11.97920   10.11734
       H   -14.63426  -16.75994   -2.01065
       O   -15.00491  -17.17682   -2.80953
      H1   -15.18909  -18.10826   -2.48355
       H   -15.94974  -18.71293    9.68730
       O   -15.05549  -18.65973   10.06823
      H1   -14.82396  -19.52631   10.33298
       H   -14.74883  -16.01740    6.82969
       O   -15.51991  -15.75651    6.33028
      H1   -15.78322  -14.92865    6.74147
       H   -17.98154  -17.59855   -1.55197
       O   -18.21823  -18.39986   -2.08133
      H1   -17.45719  -18.57834   -2.65104
       H   -17.56790  -17.60882    4.87639
       O   -16.82846  -17.11011    4.43628
      H1   -16.20598  -16.94330    5.12655
       H   -12.72114  -13.33775    6.71562
       O   -11.93893  -13.80516    6.42204
      H1   -12.28258  -14.31846    5.68894
       H   -19.09683  -16.87743   11.19033
       O   -18.92378  -17.81910   11.37477
      H1   -18.02364  -17.82921   11.68826
       H   -16.02942  -10.17992    6.98927
       O   -15.38182  -10.40040    6.29255
      H1   -14.85844   -9.60855    6.03047
       H   -19.18806  -16.92878    0.20753
       O   -19.76913  -17.62287    0.51317
      H1   -20.36488  -17.82251   -0.23988
       H   -14.32018  -13.79127    3.70905
       O   -13.98839  -14.52224    4.20194
      H1   -14.73553  -14.64536    4.81792
       H   -10.23074  -16.37879   10.40737
       O   -10.91581  -16.08384    9.79795
      H1   -11.52761  -16.81707    9.57521
       H   -12.01575  -15.76707   -1.63246
       O   -11.37855  -15.91112   -2.32483
      H1   -11.90156  -16.56378   -2.83730
       H   -13.75467  -16.94833    2.36974
       O   -13.36640  -16.09167    2.09130
      H1   -13.47871  -15.76589    2.99912
       H   -17.47414  -14.80912   11.13111
       O   -16.53623  -14.97919   11.31365
      H1   -16.55915  -15.85959   11.72187
       H   -14.02476  -14.53277   -0.59222
       O   -13.55320  -15.31453   -0.44470
      H1   -13.42879  -15.46527    0.48307

