144
frame 11 | Written by MDAnalysis XYZWriter (release 2.4.3)
       H    13.68775  -13.78416    3.59253
       O    13.05281  -13.64101    2.86470
      H1    12.43316  -14.40464    2.69657
       H     7.95038  -12.30151    6.76120
       O     8.18939  -13.11023    7.15864
      H1     7.45271  -13.52529    7.68897
       H     6.08620   -8.63785    1.70271
       O     5.87189   -7.92839    1.06144
      H1     5.23755   -8.41363    0.43790
       H    10.55307  -14.58584    1.24266
       O    11.04822  -15.18063    1.82382
      H1    11.63796  -15.74162    1.32010
       H     8.49583   -8.94241    7.10318
       O     8.15330   -8.87051    6.15824
      H1     8.75896   -8.42339    5.60579
       H     7.52281  -11.38014   10.39738
       O     7.45342  -10.80715    9.54880
      H1     8.41767  -10.56840    9.44088
       H     5.15332   -8.42025    3.53888
       O     4.75011   -7.61140    3.83350
      H1     5.45808   -6.94550    3.86894
       H     5.24220   -7.95226    5.47505
       O     5.68144   -8.13540    6.30998
      H1     6.58717   -8.42991    6.00947
       H    13.48693  -13.25859    1.35339
       O    13.92929  -12.99682    0.49937
      H1    14.70621  -13.52604    0.50456
       H     8.92012  -14.43312    6.49855
       O     9.29639  -15.16733    5.96889
      H1     9.07065  -14.83528    5.08269
       H     9.12150  -16.34895   -1.78267
       O     8.67954  -17.03085   -1.18474
      H1     8.64171  -16.56397   -0.35402
       H    14.97690  -13.25172    5.42426
       O    15.12642  -13.29591    4.45762
      H1    15.72989  -12.52837    4.23220
       H    12.64397   -8.74511    4.11087
       O    12.41327   -9.63079    4.39719
      H1    12.77663   -9.53003    5.31326
       H     6.76070  -11.31402    1.96068
       O     7.33331  -11.94458    1.50394
      H1     8.07592  -11.35815    1.26195
       H     3.12403  -11.60632    3.24466
       O     3.23517  -10.76517    2.79751
      H1     2.36953  -10.31266    3.02269
       H    13.99499  -11.07638    0.46414
       O    13.95267  -10.19881    0.82046
      H1    13.35960  -10.25886    1.53401
       H     7.36254  -15.59646    1.84227
       O     8.22202  -16.00425    1.76490
      H1     8.88473  -15.42072    2.15604
       H    11.78334  -12.55565    3.35552
       O    11.05625  -12.01557    3.68249
      H1    11.37666  -11.23482    4.18238
       H     9.40097   -9.77496   -0.62569
       O     9.30277  -10.76138   -0.43077
      H1     9.39787  -11.22755   -1.30865
       H    12.82973  -13.34781   -0.65943
       O    12.19313  -13.50617   -1.41409
      H1    12.12301  -14.47410   -1.59537
       H    13.50525   -8.59009    7.43479
       O    13.39513   -9.46486    7.03976
      H1    12.78094   -9.83485    7.66283
       H    11.65187   -5.98331    2.46290
       O    10.96873   -6.66247    2.27195
      H1    11.49115   -7.57510    2.20370
       H     6.21555  -11.81237    8.81301
       O     5.52807  -12.51868    8.80410
      H1     5.84664  -13.34110    9.18409
       H     6.06080  -12.99895   -1.20755
       O     5.57743  -12.29299   -0.75309
      H1     6.20458  -12.07965    0.02776
       H     7.97609  -10.42497    5.42338
       O     7.41748  -11.23680    5.22888
      H1     7.95558  -11.92355    4.79068
       H     8.37500  -13.28666    3.01483
       O     8.57310  -13.52105    3.90030
      H1     9.43405  -13.09693    4.01777
       H    14.22043  -13.93038    7.42318
       O    14.75268  -13.14358    7.15040
      H1    15.66026  -13.47027    7.19692
       H     5.72046  -12.53428    5.69364
       O     4.88072  -12.95173    5.95338
      H1     4.98128  -13.09598    6.89077
       H     8.13728   -6.05773    3.90829
       O     8.93903   -6.65861    4.09082
      H1     9.65000   -6.51000    3.43016
       H    12.36516  -16.01518    7.51381
       O    11.61353  -15.51449    7.74098
      H1    11.01349  -15.59191    6.97318
       H    11.93617  -14.30330    9.21940
       O    12.25630  -14.00559   10.08467
      H1    12.72267  -14.73955   10.59720
       H     6.55721  -19.19253    2.42333
       O     7.46485  -18.89093    2.48408
      H1     7.33881  -17.95897    2.65069
       H     3.61699  -11.60383    6.61406
       O     2.90392  -11.18801    7.18260
      H1     3.32749  -10.56695    7.77429
       H     6.63219  -17.62988    4.50678
       O     6.03793  -16.90765    4.33507
      H1     6.00424  -16.43791    5.13136
       H     4.87701  -10.40082    3.13925
       O     5.89139  -10.30702    3.18966
      H1     6.19902  -10.65427    4.04934
       H    11.39157   -9.82126    0.87045
       O    11.36467   -9.33234    1.71250
      H1    11.02201  -10.05516    2.29209
       H    10.73508  -19.64818    5.42260
       O    10.14024  -18.99644    5.83704
      H1    10.57534  -18.74541    6.67519
       H     3.43927  -13.37058    4.69286
       O     2.59919  -12.86632    4.43485
      H1     2.30164  -13.37443    3.66568
       H    13.43687  -17.42123    2.77211
       O    13.75842  -17.52967    3.64635
      H1    14.38958  -16.85131    3.76935
       H    13.32688  -17.25873    0.33467
       O    12.75887  -17.09469    1.09072
      H1    11.90796  -17.64494    1.02507
       H     6.98781  -15.76423    8.16947
       O     7.11547  -14.95554    8.76671
      H1     7.78737  -15.23193    9.41522
       H     9.31971  -12.85176    0.35277
       O     9.64075  -13.74557    0.20945
      H1    10.32461  -13.60048   -0.49870
       H     9.88593  -18.66126    0.48253
       O    10.18777  -18.46599    1.36643
      H1     9.43180  -18.18877    1.80826
       H     9.10817  -17.27279    8.20953
       O     9.91481  -17.81991    8.35885
      H1    10.67143  -17.19953    8.46314
       H     7.57472  -19.58284    4.23861
       O     7.51201  -19.43244    5.22384
      H1     8.46102  -19.23582    5.54320
       H     8.13278  -16.29901    6.36719
       O     7.45965  -16.83801    6.79707
      H1     7.22884  -17.57385    6.19812
       H     9.98900  -12.53201    7.17168
       O    10.75445  -11.93538    6.99732
      H1    10.67934  -11.89687    6.05049
       H    10.02237   -9.99615    9.30715
       O     9.70299   -9.79400    8.43018
      H1    10.24740  -10.39215    7.87515

