144
frame 8 | Written by MDAnalysis XYZWriter (release 2.4.3)
       H     8.17651  -12.08781    6.24679
       O     8.68570  -12.83964    6.64027
      H1     8.19765  -13.15562    7.39398
       H    12.10407   -6.43965    9.20052
       O    11.19496   -6.49505    9.58906
      H1    11.08712   -5.71304   10.17895
       H     5.12552   -8.55377    2.95691
       O     5.15763   -7.97335    2.15340
      H1     4.27923   -7.88903    1.72470
       H     5.23452   -8.29002    9.92708
       O     5.51040   -8.46265   10.86330
      H1     6.08705   -9.25600   10.78111
       H     8.56339   -9.00886    7.12764
       O     8.28160   -8.54571    6.37420
      H1     8.92422   -7.90157    6.23093
       H     7.37336  -10.93329   10.82737
       O     6.79757  -10.76242   10.04924
      H1     7.39079  -10.43871    9.33652
       H     7.56493   -3.35124   12.34992
       O     7.56007   -3.41185   11.38593
      H1     6.97820   -4.18173   11.26545
       H     4.25029   -8.16740    5.57137
       O     3.90928   -7.42181    6.13375
      H1     4.41907   -6.63625    5.72832
       H     5.29069   -7.52059    7.45172
       O     6.04489   -7.62871    8.06009
      H1     6.77118   -8.08592    7.59205
       H     7.82357  -14.13504    5.66841
       O     7.49724  -14.90187    5.19491
      H1     7.68210  -14.75324    4.26854
       H    14.12583   -6.32840    9.54040
       O    13.80161   -6.71344    8.68713
      H1    13.85069   -6.01433    8.03264
       H     4.39591   -4.23435    8.08053
       O     5.06709   -4.36808    8.76743
      H1     4.57556   -4.72273    9.56141
       H     6.16721   -6.36588    1.66973
       O     6.79827   -5.85941    1.15979
      H1     6.76947   -5.01783    1.56358
       H     9.69056   -3.75892    5.05910
       O    10.59582   -3.34287    5.01677
      H1    11.05503   -3.86747    4.36380
       H    10.65004  -11.97564   13.96469
       O    10.84493  -11.05567   14.05831
      H1    10.71983  -10.63113   13.18571
       H    11.62845   -9.11306    5.81393
       O    11.92997   -9.94033    6.18436
      H1    12.71579   -9.59805    6.63268
       H     8.35703  -13.08991    2.86414
       O     7.92871  -13.92270    2.69211
      H1     8.61343  -14.57623    2.82283
       H     5.03314   -4.63835    5.96025
       O     5.33372   -5.11119    5.18906
      H1     4.69285   -4.96042    4.45838
       H     8.56668   -8.40188   13.96187
       O     9.15213   -7.69638   13.55170
      H1     9.15995   -7.90276   12.61235
       H    12.67289  -11.21912    3.40366
       O    11.89950  -10.62937    3.38947
      H1    11.69921  -10.53084    4.30139
       H    14.22130   -8.15479    7.78636
       O    14.15631   -9.04965    7.41561
      H1    14.03491   -9.73436    8.09025
       H    10.61744   -6.97687    3.73484
       O     9.79452   -6.74146    3.24873
      H1     9.95189   -7.20198    2.38694
       H     5.62620  -12.24991    9.57722
       O     4.98098  -12.95973    9.41910
      H1     5.52648  -13.71985    9.14135
       H     7.60942   -6.55881    8.30564
       O     8.14048   -5.80850    8.69230
      H1     9.06211   -5.92487    8.46125
       H     7.51811   -9.99854    5.51711
       O     7.13539  -10.82355    5.18573
      H1     7.72622  -11.31241    4.63053
       H     6.45893   -7.19770   11.06114
       O     6.84858   -6.31441   11.17711
      H1     7.32814   -6.12456   10.33676
       H     9.26925  -11.13793    2.45041
       O     9.04478  -11.47701    3.28372
      H1     9.94504  -11.64209    3.52713
       H    11.78563  -10.95421   10.46968
       O    11.73929  -10.39805   11.25716
      H1    12.63104  -10.08589   11.56189
       H    10.43386   -9.13753   10.88750
       O     9.76063   -8.47122   10.71654
      H1    10.16994   -7.75752   10.20623
       H    12.04784   -5.17316    2.40054
       O    11.35940   -4.75078    2.99880
      H1    10.62819   -5.37557    3.24277
       H     5.10433  -12.13012    6.48536
       O     4.22567  -12.36564    6.88940
      H1     4.45989  -12.58036    7.83658
       H     7.06156   -4.99882    4.93685
       O     7.99767   -4.91172    4.95135
      H1     8.25669   -5.71417    4.43599
       H     7.82327  -11.34969   13.49192
       O     7.58020  -11.90441   12.72092
      H1     6.74947  -12.42686   12.93516
       H    11.97393  -14.39266    8.89834
       O    11.82200  -14.12139    8.01095
      H1    12.69787  -14.03592    7.61201
       H    11.62159   -6.88115    5.78449
       O    11.94185   -7.40920    5.00344
      H1    12.72828   -7.09086    4.55526
       H     3.02297   -7.87804    7.64891
       O     2.81438   -8.43474    8.38621
      H1     1.89786   -8.31575    8.73517
       H     4.23353   -4.32291   11.51404
       O     4.28453   -5.25673   11.22756
      H1     5.19054   -5.53559   11.33482
       H     3.82676   -9.75010   11.26308
       O     3.20916  -10.19592   11.83261
      H1     3.42023  -11.11289   11.81771
       H     2.93120  -11.07490    7.58833
       O     2.03171  -10.99064    7.83915
      H1     1.98406  -10.10163    8.26465
       H     4.30279  -10.28960    3.84001
       O     4.75675   -9.52950    4.22721
      H1     5.55894  -10.02031    4.56307
       H    12.28851   -8.29038    0.85676
       O    12.21768   -7.94936    1.77832
      H1    11.97215   -8.71791    2.26917
       H    11.04348   -4.79378    6.44247
       O    10.72130   -5.59196    6.91393
      H1    11.10741   -5.51523    7.80486
       H     7.19599  -15.09359    8.30300
       O     7.28284  -14.18515    8.57308
      H1     7.23610  -14.17975    9.49124
       H     9.03339   -7.47966   -0.18394
       O     8.84395   -7.77154    0.70287
      H1     8.04342   -7.33503    1.01127
       H     6.41592   -4.00485    7.82450
       O     7.01282   -3.56870    7.21151
      H1     7.68274   -4.24593    7.26899
       H     9.57052   -4.08800   11.25440
       O    10.36939   -4.65556   11.35165
      H1    10.35950   -5.14222   12.17346
       H    11.51100  -12.31386    8.44515
       O    11.29065  -11.40500    8.48906
      H1    11.39117  -10.94489    7.66770
       H     9.30718   -9.44962    9.30762
       O     9.00093   -9.94586    8.53757
      H1     9.63376  -10.65788    8.41513

