144
frame 9 | Written by MDAnalysis XYZWriter (release 2.4.3)
       H    -4.76678   -3.07210  -11.80925
       O    -4.11796   -3.55754  -11.29535
      H1    -3.26950   -3.19237  -11.56189
       H     7.15550   -6.36864  -12.46024
       O     8.08116   -6.28091  -12.24511
      H1     8.08461   -6.04464  -11.34170
       H     8.76157   -5.52144  -15.26222
       O     8.22064   -4.88296  -15.76156
      H1     7.68993   -4.48010  -15.06658
       H    -3.36297   -3.08256  -17.65655
       O    -3.10002   -3.36127  -16.77157
      H1    -3.00094   -2.54104  -16.30581
       H    -2.12343  -10.50751  -13.15301
       O    -1.67081   -9.65796  -13.25807
      H1    -1.62152   -9.48851  -14.22809
       H     3.56565   -4.47855   -9.31638
       O     3.02223   -5.01870   -9.95964
      H1     3.59084   -5.79989   -9.97121
       H    -1.19057   -2.85467   -8.69030
       O    -0.77821   -2.08167   -9.20255
      H1    -1.20469   -1.26777   -8.90621
       H     4.41357   -5.41703  -18.15322
       O     5.08493   -5.95146  -18.55440
      H1     4.74560   -6.87561  -18.71560
       H     0.95099   -5.48456   -8.94987
       O     0.06322   -5.66128   -8.68231
      H1     0.18505   -5.95452   -7.73682
       H     5.59305   -6.22401  -16.88473
       O     5.46764   -6.69752  -16.01483
      H1     5.37034   -5.99971  -15.31167
       H    -2.46117   -0.45915  -14.84576
       O    -2.83024   -1.29842  -14.62743
      H1    -3.62941   -1.20143  -14.08242
       H     2.77063   -9.89415  -16.45331
       O     3.17823   -8.99517  -16.45923
      H1     3.84776   -9.15910  -15.80498
       H     4.46055    2.54612  -14.61041
       O     4.19632    1.70832  -14.18110
      H1     4.82079    1.05152  -14.52787
       H     1.01564   -0.95734  -14.98279
       O     1.02935   -1.01177  -15.92054
      H1     1.58730   -0.29735  -16.21311
       H     7.01222   -4.49788  -13.26904
       O     6.61015   -3.74878  -13.73434
      H1     5.71486   -4.08907  -13.95626
       H     1.78919   -3.02545  -12.22891
       O     2.68010   -3.10214  -11.88173
      H1     2.61308   -3.86851  -11.33383
       H    -1.94113   -6.60088  -16.60441
       O    -2.10319   -5.90697  -17.28441
      H1    -2.28429   -5.03709  -16.87528
       H     1.29837    0.96176  -10.14283
       O     1.79967    0.19531  -10.45769
      H1     2.67609    0.58263  -10.62862
       H     1.76677   -8.07425  -10.41563
       O     1.61602   -7.50042  -11.18802
      H1     0.67901   -7.45616  -11.40860
       H     6.83932   -0.25784  -14.38740
       O     6.24123   -0.10292  -15.13928
      H1     6.81280    0.56406  -15.60271
       H     6.99546   -9.01000  -14.61320
       O     7.03027   -8.82775  -15.53386
      H1     6.46369   -8.03225  -15.58621
       H     4.21773   -9.02022  -18.04183
       O     4.64246   -8.68864  -18.86294
      H1     5.58832   -8.94708  -18.69825
       H    -0.09737   -0.73827  -19.40960
       O     0.64421   -1.06071  -18.88347
      H1     0.34377   -1.90107  -18.37654
       H    -1.45471    1.52216  -12.31292
       O    -0.76049    1.34612  -12.98013
      H1    -0.33695    0.51928  -12.70332
       H     1.15116   -0.52046  -12.13377
       O     0.69428   -1.03719  -12.82385
      H1    -0.02605   -1.49944  -12.40824
       H    -0.45441   -7.47211  -19.71995
       O    -0.88645   -6.63802  -19.56343
      H1    -0.99426   -6.43792  -18.60041
       H    -0.22395    0.23504  -15.73600
       O    -1.09301    0.53881  -15.47969
      H1    -0.96994    0.89966  -14.59971
       H    -2.12873    0.78181  -17.15252
       O    -2.22474    1.28436  -17.96540
      H1    -3.16610    1.56348  -18.05152
       H    -0.11226   -2.64556  -16.57936
       O     0.01536   -3.50634  -16.89768
      H1    -0.82511   -3.70476  -17.34690
       H    -3.69370   -6.92662  -13.24074
       O    -4.54567   -7.05622  -12.80847
      H1    -5.27616   -6.59684  -13.33936
       H     0.34905   -9.42985  -19.12916
       O    -0.22091   -9.48233  -18.36779
      H1    -0.53827  -10.45026  -18.35421
       H     3.44678   -8.06280  -13.28796
       O     3.88302   -8.30627  -12.44042
      H1     3.21747   -7.98329  -11.89304
       H     4.75033   -5.47994  -12.09969
       O     5.30935   -6.05003  -12.57859
      H1     4.84388   -6.91988  -12.46111
       H     2.37994   -4.40307  -18.74764
       O     2.76090   -4.47102  -17.88292
      H1     2.06020   -4.94674  -17.44705
       H    -1.31572   -2.51663  -10.79918
       O    -1.60956   -2.58695  -11.74127
      H1    -1.26688   -3.47321  -12.14826
       H    -5.26536   -3.29351  -14.56916
       O    -5.43790   -3.96569  -15.36979
      H1    -4.64054   -3.89780  -15.90323
       H    -3.50694   -6.69914  -18.15647
       O    -4.19650   -7.36789  -18.42613
      H1    -3.78688   -7.79785  -19.21188
       H     2.90540    1.60694  -15.41151
       O     2.39046    1.44538  -16.20833
      H1     2.96182    1.59907  -16.93810
       H     2.39157   -7.96937  -15.22258
       O     2.06774   -7.62104  -14.36135
      H1     2.27133   -6.66181  -14.29460
       H     2.61048   -4.05512  -14.89269
       O     1.82444   -4.62139  -14.84301
      H1     1.28979   -4.05835  -15.43594
       H     6.01257   -1.46959  -11.31455
       O     6.70711   -2.12360  -11.50561
      H1     6.60095   -2.50171  -12.37796
       H     3.55711   -2.12270  -15.01767
       O     3.92430   -2.94147  -14.58361
      H1     3.60058   -2.90675  -13.65948
       H    -1.44822   -7.02791  -11.21528
       O    -1.15634   -7.20561  -12.11996
      H1    -1.43925   -8.09156  -12.46092
       H    -0.65970   -5.55844  -13.33069
       O    -0.46499   -4.62392  -13.15536
      H1     0.39101   -4.37963  -13.44044
       H    -0.72591   -8.23528  -16.21214
       O    -1.16087   -7.77193  -15.49335
      H1    -0.45969   -7.44059  -14.90164
       H     0.58813  -11.78574  -12.99432
       O     0.90352  -10.86767  -12.64005
      H1     0.18432  -10.32714  -12.97810
       H     6.65439   -1.23385  -17.02289
       O     6.59114   -1.38081  -17.95975
      H1     7.53907   -1.38040  -18.24286
       H     2.56233   -1.30148   -8.27371
       O     2.24641   -2.21092   -8.52184
      H1     1.84243   -2.10786   -9.38131

