144
frame 0 | Written by MDAnalysis XYZWriter (release 2.4.3)
       H     8.89919    7.90888  -11.02213
       O     9.18687    8.54765  -10.34081
      H1     9.20180    8.21462   -9.45389
       H    10.69073   11.35837  -13.49230
       O    10.88361   12.09306  -14.03018
      H1    11.80878   12.37546  -13.65297
       H    11.68455    2.60044  -17.69130
       O    12.26720    2.09119  -18.23588
      H1    12.54434    1.31136  -17.69110
       H     5.54253   -0.78345  -18.59794
       O     4.69812   -0.91095  -19.12273
      H1     4.03956   -0.47333  -18.54106
       H    12.81408    9.85410  -16.53739
       O    13.02749    8.99617  -16.91662
      H1    12.15052    8.70649  -17.25328
       H    13.21685    4.54791  -15.58876
       O    13.54397    5.16269  -14.95121
      H1    13.83239    5.88228  -15.47671
       H     4.96331    3.88282  -19.82249
       O     4.74867    3.14102  -19.20103
      H1     4.15507    3.48670  -18.53231
       H    -0.59842    7.28951  -16.55764
       O     0.33769    7.32599  -16.19849
      H1     0.42541    8.27930  -16.09857
       H     1.59451    9.11132  -18.76148
       O     0.98056    9.78955  -19.03624
      H1     0.92763    9.78895  -20.00951
       H     3.51021    8.59232  -11.85551
       O     4.24605    8.89700  -11.26562
      H1     4.20851    9.85965  -11.27859
       H    -0.13003    3.32513  -17.23450
       O    -0.34124    3.53682  -18.17940
      H1     0.51831    3.72110  -18.65723
       H     8.18353   10.57089  -16.82892
       O     8.93289   10.27070  -16.29200
      H1     9.72084   10.72560  -16.61605
       H    10.25991    4.48403  -19.32702
       O    10.38653    4.91489  -18.52087
      H1    10.29258    5.91587  -18.61267
       H     6.15018    8.45759  -14.47501
       O     5.84101    8.84784  -15.30382
      H1     6.74405    9.10088  -15.61534
       H     5.61341    1.31828  -13.51737
       O     5.40906    0.75792  -14.28002
      H1     6.11992    0.10636  -14.30709
       H     9.16225    6.70743  -13.32139
       O     8.67198    7.40971  -12.88347
      H1     8.83160    8.21394  -13.32281
       H     9.91132    4.81068  -14.51962
       O    10.15476    5.20496  -13.65903
      H1    11.05854    5.55208  -13.66201
       H     5.68503    6.42283  -17.64615
       O     4.76310    6.09040  -17.48110
      H1     4.19208    6.86937  -17.63206
       H     5.54546    2.47905  -11.63239
       O     6.36628    2.17936  -12.09294
      H1     7.04083    2.87583  -12.09402
       H    14.31647    6.73760  -19.66161
       O    13.43765    6.67396  -19.27133
      H1    12.87397    6.02299  -19.79737
       H     6.43762    6.37752   -9.07111
       O     6.53382    5.58757   -9.69434
      H1     6.18346    5.75741  -10.61064
       H     6.94722   14.17603  -17.73376
       O     7.33393   13.62025  -18.42456
      H1     8.19208   13.34996  -18.03465
       H    10.13510   13.64146  -18.79340
       O    10.06520   13.34998  -17.84637
      H1    10.06619   14.10484  -17.26056
       H     7.85256    6.61175  -18.49888
       O     7.73795    6.72927  -17.56989
      H1     8.25591    7.53813  -17.51067
       H     8.12222    0.60606  -16.11411
       O     8.63294    1.18841  -16.68243
      H1     7.99096    1.78769  -17.08056
       H     1.79520    7.28377  -17.54832
       O     2.58679    7.80699  -17.81572
      H1     2.73345    8.42621  -17.07507
       H    13.87734    3.43333  -17.94094
       O    14.48026    4.16035  -17.88323
      H1    14.43946    4.58589  -18.75493
       H     8.81484    4.16740  -12.54489
       O     8.71128    3.51358  -11.82167
      H1     9.26521    3.85636  -11.04867
       H     3.82432    8.87166  -15.26293
       O     2.97905    9.12766  -15.66625
      H1     2.38786    9.05107  -14.91948
       H    10.22214    0.02151  -19.09852
       O     9.77970   -0.46317  -18.38130
      H1     9.38385    0.15184  -17.77410
       H     2.74126   12.43481  -16.38567
       O     3.19388   12.71166  -15.55436
      H1     4.10615   12.58474  -15.73418
       H     7.77494    5.51277  -16.33184
       O     7.82376    4.64529  -15.88245
      H1     6.90703    4.54259  -15.57582
       H    10.94188    6.72102  -10.97172
       O    11.87850    6.54715  -11.23390
      H1    12.23968    6.61451  -10.33628
       H     8.80263   10.18656  -14.62569
       O     8.92042    9.91093  -13.65974
      H1     8.36566   10.50804  -13.09266
       H     6.52598   11.89286  -17.82481
       O     6.52926   10.97740  -17.43460
      H1     6.34576   10.36570  -18.13416
       H    10.01603    2.50498  -16.23620
       O    10.68068    3.20912  -16.02655
      H1    10.44184    3.92729  -16.64112
       H    12.79304   11.37120  -18.02382
       O    12.79044   11.24717  -19.01315
      H1    13.62429   10.75523  -19.18520
       H     7.65562    3.64699  -17.57596
       O     7.47551    2.99564  -18.24928
      H1     6.52289    2.83709  -18.20120
       H     6.20634   10.83646  -14.62643
       O     6.04345   11.53448  -14.02962
      H1     6.63169   12.30823  -14.24744
       H    15.20160    6.26567  -16.97917
       O    15.07906    7.04126  -16.43992
      H1    14.45699    7.58312  -16.93656
       H     5.18928    5.86202  -15.78238
       O     5.37558    5.41193  -14.92945
      H1     5.89970    5.97257  -14.32620
       H     7.09669    6.91223  -12.24120
       O     6.13262    6.80015  -12.39227
      H1     5.71577    7.59978  -12.10198
       H    10.72091    8.31207  -18.92574
       O    11.01361    7.77695  -18.18122
      H1    11.82393    7.27953  -18.47457
       H    11.30495   12.26476  -17.24389
       O    11.72936   11.71141  -16.60464
      H1    11.29958   11.95190  -15.73781
       H     3.01110   -0.06245  -15.92668
       O     3.35552    0.12084  -16.79670
      H1     3.59720    1.06790  -16.71024
       H    11.62075    2.14258  -13.42894
       O    11.80225    2.82071  -12.76303
      H1    11.15202    3.49653  -12.97111
       H     7.90861   13.83792  -13.35017
       O     7.80197   13.47742  -14.26492
      H1     8.59458   12.95529  -14.49710
       H     2.88206    4.14268  -13.39892
       O     2.99336    5.07373  -13.42017
      H1     3.84392    5.28270  -13.81960

