144
frame 1 | Written by MDAnalysis XYZWriter (release 2.4.3)
       H    -5.35617   -3.58093  -11.00131
       O    -5.04454   -4.09350  -10.20332
      H1    -4.15544   -3.91909  -10.05128
       H    -7.81943   -7.85153  -17.20907
       O    -7.50367   -8.61353  -17.76444
      H1    -7.12039   -8.30667  -18.56143
       H    -4.05781   -2.11215   -6.39017
       O    -3.54204   -1.72486   -7.09235
      H1    -4.08694   -1.27089   -7.75100
       H    -9.66010   -3.54828  -16.98084
       O    -9.83572   -4.46274  -16.72915
      H1   -10.54761   -4.76726  -17.31632
       H    -9.12746   -1.57939   -7.65802
       O    -9.41596   -2.13705   -8.41563
      H1    -8.73085   -2.03545   -9.14785
       H    -7.62319   -1.66047  -16.76195
       O    -8.43438   -2.07749  -17.20397
      H1    -9.21102   -1.50116  -17.07663
       H    -4.59966   -2.18106  -15.71522
       O    -3.81750   -2.74246  -15.66023
      H1    -3.60329   -2.86605  -14.71132
       H     0.26187   -3.26232  -10.65868
       O    -0.20516   -4.05574  -10.90002
      H1     0.42495   -4.53598  -11.53078
       H    -0.65951   -6.93984  -11.72359
       O    -1.28615   -7.63338  -11.83153
      H1    -2.12837   -7.16370  -11.51807
       H    -5.97899   -5.53828   -9.15460
       O    -6.09145   -6.34501   -8.72550
      H1    -6.73016   -6.07768   -8.03029
       H    -1.61506   -2.73425  -12.58427
       O    -1.72565   -2.78002  -13.52309
      H1    -1.50213   -3.65427  -13.83001
       H    -4.73077   -7.81974  -11.40912
       O    -5.08743   -8.63784  -10.97825
      H1    -4.92736   -8.46928  -10.08474
       H   -12.38534   -0.06540  -11.94427
       O   -11.42536   -0.25440  -12.14007
      H1   -11.28560   -0.08983  -13.07934
       H   -11.62638   -5.70568  -14.06508
       O   -11.51554   -4.77612  -14.27565
      H1   -10.89125   -4.64398  -15.01836
       H    -7.64517    1.27717  -11.05649
       O    -8.13561    0.53461  -11.38831
      H1    -8.90048    0.52092  -10.86149
       H    -8.09992   -2.04536  -18.97765
       O    -7.82002   -2.01162  -19.90424
      H1    -7.62082   -2.91702  -20.11391
       H    -1.39905   -4.21724   -9.62324
       O    -2.13577   -4.02890   -9.06393
      H1    -1.80724   -3.47772   -8.35980
       H   -11.34048   -7.36675  -10.58112
       O   -11.36279   -6.71286  -11.29198
      H1   -11.56403   -7.12136  -12.10779
       H    -7.43135   -2.77754  -10.74642
       O    -7.46988   -1.94982  -10.24952
      H1    -7.72730   -1.30478  -10.96486
       H    -7.31680   -7.99426  -12.69810
       O    -8.14720   -7.57467  -12.57963
      H1    -8.03180   -6.74380  -13.04181
       H    -8.39833   -7.35617  -10.74560
       O    -8.41768   -6.89411   -9.90980
      H1    -7.49363   -7.08596   -9.57577
       H   -11.33105   -2.15818  -12.06301
       O   -10.87185   -3.02119  -11.95590
      H1   -11.16691   -3.57358  -12.67680
       H    -8.19443   -0.68171  -12.86573
       O    -8.34689   -1.57439  -13.20912
      H1    -8.83504   -2.07084  -12.55323
       H    -3.42979   -5.56810  -17.01199
       O    -4.27761   -5.12027  -16.88200
      H1    -4.14750   -4.22623  -16.47200
       H     0.08709   -0.31868  -13.31981
       O    -0.44196    0.49456  -13.19338
      H1    -1.34141    0.23365  -12.77504
       H    -6.72493   -6.04995  -17.45945
       O    -7.47137   -6.08477  -16.84785
      H1    -8.15257   -5.50542  -17.13941
       H    -4.18356   -8.01339  -14.37051
       O    -4.17083   -8.95194  -14.34691
      H1    -3.23399   -9.21136  -14.30986
       H    -5.72127   -0.43891  -17.27225
       O    -6.00482   -0.86175  -16.50611
      H1    -6.10278   -0.15211  -15.88346
       H    -3.21054   -0.77013  -12.19016
       O    -2.72960    0.03379  -11.87369
      H1    -2.24291   -0.43744  -11.11865
       H     1.46533   -2.30365  -13.61969
       O     0.86976   -1.79264  -14.20238
      H1    -0.01781   -2.12092  -14.05831
       H    -4.07487    1.14703   -9.88514
       O    -4.19020    2.06243   -9.62116
      H1    -5.07211    2.46269   -9.89540
       H    -1.18333   -0.47788   -8.91634
       O    -1.29382   -1.17623   -9.58831
      H1    -1.83366   -1.84697   -9.12570
       H    -2.93733    1.67299  -15.84816
       O    -3.81957    1.99407  -15.66616
      H1    -3.73029    2.87606  -15.33505
       H    -1.48205   -2.05552  -17.88637
       O    -1.96544   -1.36575  -17.44733
      H1    -2.64390   -1.86215  -16.92280
       H    -4.29877   -5.75769  -10.91098
       O    -3.93478   -6.26508  -11.64076
      H1    -4.05618   -5.80448  -12.48949
       H   -13.44121   -2.13318  -14.70294
       O   -12.87975   -2.61231  -15.36760
      H1   -12.29918   -3.21271  -14.83732
       H    -9.45642   -3.89236   -8.24231
       O    -9.65129   -4.83873   -8.15358
      H1    -9.23186   -5.32980   -8.83617
       H    -4.42342   -5.77965  -15.26094
       O    -4.44297   -5.93124  -14.30451
      H1    -5.33996   -5.78997  -14.05841
       H    -9.31036   -4.22547  -11.45536
       O    -8.44304   -4.63367  -11.50238
      H1    -8.55533   -5.51534  -11.09334
       H   -10.78407   -0.25851  -15.50515
       O   -10.77778    0.34859  -14.76665
      H1   -10.19262    1.01949  -15.10604
       H    -5.72577    0.08196   -8.92558
       O    -5.30568   -0.56587   -9.49680
      H1    -6.05358   -1.16854   -9.64124
       H    -6.58166   -2.19365  -13.00905
       O    -5.85312   -2.86132  -12.77382
      H1    -6.01029   -3.66389  -13.26884
       H    -5.13936   -5.46353  -18.15009
       O    -5.78852   -5.84286  -18.83294
      H1    -5.30108   -6.02734  -19.66017
       H    -7.75355   -4.73150  -13.52829
       O    -7.03478   -5.15174  -14.03421
      H1    -7.42552   -5.39794  -14.88779
       H    -1.16309   -6.21943  -14.52201
       O    -0.76672   -5.32765  -14.46094
      H1    -0.59776   -5.12983  -15.41749
       H    -5.55498    2.13023  -14.24121
       O    -5.71324    1.61512  -13.42990
      H1    -4.77273    1.35116  -13.30323
       H   -10.32098  -10.41860  -13.59244
       O   -10.06336   -9.58494  -13.93296
      H1    -9.39225   -9.26361  -13.27152
       H    -5.43887   -4.50035   -5.96681
       O    -5.74531   -3.82741   -6.60271
      H1    -5.12290   -3.94895   -7.32092

