144
frame 9 | Written by MDAnalysis XYZWriter (release 2.4.3)
       H    -5.29941    6.79864   -8.18266
       O    -5.33317    6.14800   -7.46309
      H1    -6.16647    6.24421   -6.92103
       H    -3.45316   14.04584  -10.55764
       O    -3.42946   13.06415  -10.43220
      H1    -3.93176   12.69302  -11.16613
       H     3.10730    9.03217   -3.48575
       O     3.28684    8.81144   -4.45838
      H1     3.89674    8.05916   -4.37012
       H    -7.07795    9.88883   -5.41369
       O    -6.90051    9.29662   -6.11111
      H1    -7.73694    8.88031   -6.27249
       H    -0.97680    8.45914   -5.65054
       O    -1.30642    8.48624   -6.57142
      H1    -2.01626    9.09601   -6.72736
       H     0.47031    4.88248   -8.61609
       O     1.24273    4.82111   -8.09734
      H1     1.87289    4.51950   -8.77368
       H     0.56273    1.32014   -5.52949
       O     0.66143    2.27538   -5.52937
      H1    -0.14393    2.55472   -5.99691
       H     0.89170   12.48764  -12.02973
       O     0.10268   12.68723  -11.56564
      H1    -0.47490   11.93618  -11.58498
       H    -3.25960    7.56319   -0.82831
       O    -3.94052    6.95587   -0.49649
      H1    -4.11295    6.39251   -1.31271
       H    -4.50885    7.42376   -5.04461
       O    -4.41269    8.38486   -5.29050
      H1    -5.22154    8.49373   -5.77729
       H    -4.01922    9.37169   -3.95871
       O    -3.67608    9.84095   -3.16261
      H1    -4.16975    9.45866   -2.47597
       H    -2.97611    6.96728  -11.29743
       O    -3.69383    6.42246  -10.96628
      H1    -4.28903    6.26282  -11.73330
       H     5.06785    5.78384   -4.34681
       O     5.04065    6.63089   -4.81625
      H1     4.53694    6.55185   -5.64039
       H    -4.42637    5.49056   -3.11985
       O    -4.55325    5.08061   -2.25722
      H1    -5.53124    5.07022   -2.06050
       H     1.64016    9.19984  -10.61620
       O     1.73430    8.70852  -11.41297
      H1     0.85590    8.61942  -11.85244
       H    -0.25110    6.18815   -0.89345
       O     0.12127    5.47827   -0.31420
      H1    -0.55723    4.79541   -0.19731
       H    -6.67522    4.11487   -9.14083
       O    -5.70076    4.15814   -9.26703
      H1    -5.47237    4.86891   -8.67685
       H    -6.18465   11.51936   -8.48580
       O    -5.31499   11.91513   -8.11902
      H1    -4.82846   12.28856   -8.87132
       H     0.86103    6.50613   -7.53771
       O     0.82245    7.45356   -7.81132
      H1     0.17994    7.81682   -7.18498
       H     2.24849    9.84322   -6.01272
       O     1.77223   10.60829   -6.38346
      H1     1.02253   10.31862   -6.91699
       H    -0.66265   10.59734   -2.49349
       O    -0.91895   10.33576   -3.43589
      H1    -1.89503   10.05872   -3.40737
       H     3.47545    8.45159   -0.99787
       O     2.75694    8.31876   -1.60676
      H1     2.68542    7.35711   -1.54220
       H    -1.38518    9.83198  -10.31714
       O    -1.77410   10.38715  -11.04299
      H1    -2.32423   11.07799  -10.53156
       H    -4.05629   11.63035   -3.38792
       O    -4.53441   12.44924   -3.60458
      H1    -4.67932   12.47084   -4.52261
       H     4.70312   11.84669   -4.65088
       O     5.17305   11.03043   -4.73966
      H1     4.41770   10.38101   -4.62744
       H    -0.90442   11.52379   -8.19955
       O    -0.37254   10.73835   -8.31757
      H1     0.49983   10.98772   -8.59900
       H    -4.12392    5.71015   -5.99614
       O    -3.95904    5.55242   -5.04856
      H1    -3.01150    5.32862   -4.97363
       H    -0.49743    7.84820   -8.91413
       O    -1.36063    8.19039   -9.31878
      H1    -1.81705    8.73479   -8.64261
       H    -2.11174    3.73911  -10.88304
       O    -1.67289    4.58633  -10.71679
      H1    -2.54123    5.09098  -10.85460
       H    -4.41558   10.53758   -7.50815
       O    -3.74774    9.80035   -7.33088
      H1    -4.08216    9.18038   -6.61093
       H    -0.69199    9.67846    0.36820
       O    -0.28054   10.02509   -0.45562
      H1     0.41625   10.65483   -0.18384
       H     1.39053    6.24282   -3.11448
       O     1.71414    5.65887   -2.44277
      H1     1.04018    5.57270   -1.79098
       H    -0.46711    8.27162   -1.57021
       O    -0.80183    7.40264   -1.84480
      H1    -0.36804    7.27084   -2.70567
       H     0.78229   13.25833   -9.90768
       O     1.46100   13.36075   -9.16996
      H1     2.06548   14.00412   -9.55314
       H     5.03670    9.13811   -9.01345
       O     5.51569    8.70524   -8.31029
      H1     4.89042    7.94872   -8.10963
       H    -4.31157    7.96614   -9.87400
       O    -4.91256    8.39717   -9.19596
      H1    -4.33463    8.90949   -8.56220
       H     1.00464   13.24307   -4.21796
       O     1.32442   13.33254   -5.18009
      H1     1.39163   12.48581   -5.62664
       H    -6.44627    9.27959   -9.50187
       O    -7.35921    9.66387   -9.42884
      H1    -7.81873    9.25060   -8.71170
       H    -1.85085   14.24898   -5.61603
       O    -2.18913   14.81867   -6.31958
      H1    -1.40893   15.40358   -6.53692
       H    -1.25612    8.79802  -13.72777
       O    -1.58895    9.65909  -13.54686
      H1    -1.43572    9.79428  -12.59934
       H    -2.89500   13.03267   -3.72051
       O    -1.93127   13.12199   -3.92435
      H1    -1.58518   12.23486   -4.00348
       H    -1.92695    5.85320   -7.76853
       O    -1.74520    4.96666   -8.11700
      H1    -1.88931    4.96698   -9.06642
       H     2.44036   10.53058   -7.98086
       O     2.65333   10.58872   -8.92820
      H1     2.49132   11.49750   -9.18242
       H    -2.42161   13.32215   -8.85546
       O    -1.69657   13.09383   -8.22020
      H1    -1.89318   13.71728   -7.48488
       H     3.88363    5.85027   -7.77252
       O     3.92262    6.75447   -7.35442
      H1     3.00010    7.03145   -7.48585
       H    -1.81048    3.99025   -4.24324
       O    -1.41323    4.79470   -3.82190
      H1    -1.48339    4.52640   -2.88377
       H     1.38816    8.47768   -4.24193
       O     0.43976    8.36116   -4.45132
      H1     0.03933    9.14149   -4.04977
       H    -2.18093    2.09785   -6.77463
       O    -1.42550    2.26132   -7.36494
      H1    -1.59233    3.09782   -7.65163

