144
frame 4 | Written by MDAnalysis XYZWriter (release 2.4.3)
       H    -0.52526   11.07837    8.37140
       O    -1.39022   11.29975    8.57147
      H1    -1.34485   11.43237    9.55387
       H     0.30940   14.25010   -3.23630
       O     0.17013   14.91874   -2.52793
      H1    -0.44093   15.59378   -2.90865
       H     1.86746   10.35686   -1.10936
       O     1.94423    9.58727   -1.69657
      H1     2.32736    8.88239   -1.11751
       H    -2.20749   13.46874    2.32226
       O    -2.44227   14.33172    2.69401
      H1    -3.29634   14.62860    2.35751
       H     2.28342   19.69093   -0.03994
       O     2.08617   18.74824    0.11752
      H1     1.18330   18.68167    0.49446
       H    -2.82790   20.10580    2.77662
       O    -1.97866   19.65929    2.80412
      H1    -1.99207   18.93181    3.40767
       H     0.75771   12.68949   -0.21260
       O     1.34402   12.00816   -0.51820
      H1     2.21244   12.34795   -0.80622
       H     3.75946   19.62586    4.00196
       O     4.05159   18.70812    4.00376
      H1     4.17164   18.35551    3.04086
       H    -1.66447   16.07566    9.05574
       O    -1.49723   16.73096    8.41442
      H1    -1.17600   16.13158    7.69483
       H     3.20237   18.17315    5.69657
       O     3.00105   17.91800    6.60569
      H1     2.15276   18.20997    6.76448
       H     0.63439    6.19963    1.14754
       O     1.55165    6.26607    1.51648
      H1     1.65481    7.22281    1.65677
       H     0.66069    9.36707    5.75779
       O     0.72935    9.84856    6.64708
      H1     1.53014   10.39583    6.65432
       H     3.30076   15.01503    6.76952
       O     3.73739   15.37467    7.60018
      H1     3.73476   16.30835    7.31280
       H     1.20320   18.74538    3.94422
       O     1.14684   17.79752    3.94333
      H1     1.99042   17.39859    3.83238
       H     4.74619   14.21452    1.75305
       O     4.46197   14.65324    0.95996
      H1     4.24879   15.52457    1.17357
       H    -4.25639    9.98538    1.37903
       O    -3.89012   10.53376    2.07243
      H1    -4.52038   11.16337    2.37407
       H    -2.76526   11.06038   -1.35952
       O    -2.54048   10.33323   -1.88545
      H1    -3.30824   10.19296   -2.54051
       H     3.58272   11.45290    7.39570
       O     2.72390   11.77570    7.20802
      H1     2.19343   11.66129    8.01321
       H    -0.62063   13.12034    8.52429
       O    -0.19902   13.98691    8.77862
      H1     0.04799   14.38573    7.91395
       H     1.97400   13.75447    4.74996
       O     2.14796   14.11312    5.61624
      H1     2.36917   13.36256    6.16325
       H    -0.77921   15.64616    2.12828
       O    -0.00157   16.18155    1.99390
      H1     0.14333   16.78846    2.67830
       H    -0.14222   14.76497    0.41418
       O    -0.55043   14.04646   -0.05403
      H1    -0.34063   14.28747   -1.00039
       H     3.06913    8.97320    2.40758
       O     2.13918    8.99389    2.08157
      H1     1.96062    9.89974    2.21552
       H    -5.64198   14.69075    2.36810
       O    -4.95793   15.24289    1.91428
      H1    -5.32593   16.15695    1.74700
       H    -5.49044   12.09256    3.87933
       O    -5.67303   12.52745    3.00497
      H1    -6.60273   12.33471    2.79175
       H    -0.99606   19.11174    1.37355
       O    -0.51645   18.64465    0.69600
      H1    -0.61338   17.69124    0.84469
       H    -0.72799   15.19229    5.94408
       O     0.00251   15.60899    6.40946
      H1     0.86515   15.12833    6.16737
       H    -1.36761    8.21898    2.93351
       O    -1.37055    8.70013    2.06989
      H1    -2.21768    9.19148    2.13701
       H     5.60720   13.86237    3.93668
       O     6.26367   14.39514    4.33855
      H1     6.31899   14.10450    5.23668
       H    -1.46870   11.43249    3.44919
       O    -1.14352   11.80728    2.58169
      H1    -1.06153   11.09782    1.94377
       H     5.86142   11.29354    4.02178
       O     6.14002   10.41532    4.37876
      H1     5.45191    9.71731    4.17673
       H    -3.39033   12.26682    0.65542
       O    -3.04231   12.61632   -0.18963
      H1    -2.17863   12.99505    0.08002
       H    -1.10009    7.37228    1.04349
       O    -0.89647    6.78492    0.29423
      H1    -0.70560    7.42704   -0.43202
       H     2.23738   12.51947    2.63278
       O     2.68493   11.90532    1.99223
      H1     2.18584   12.02403    1.20668
       H     0.31565   18.35616    8.14861
       O     0.20478   18.66758    7.24653
      H1    -0.20925   17.95613    6.76808
       H     2.41678   14.32917   -3.00827
       O     2.17843   13.68670   -3.66959
      H1     2.35248   14.30915   -4.41096
       H     4.83297   17.34749    0.70216
       O     4.10917   17.34148    1.34448
      H1     3.30113   17.66727    0.92838
       H    -1.45931   10.39108    5.97802
       O    -1.92331   10.71441    5.17836
      H1    -2.79622   11.05282    5.48161
       H     0.61951   13.20355    2.79810
       O     1.28339   13.84618    2.98304
      H1     0.92080   14.70565    2.76658
       H    -0.60331   17.41338    5.09278
       O    -1.49398   17.67917    5.26485
      H1    -2.04468   16.82649    5.14612
       H     0.72663    8.80251    3.36905
       O     0.49835    8.52076    4.26132
      H1     1.17692    7.96652    4.63674
       H     0.12781   11.72159   -2.49578
       O    -0.47454   11.67977   -3.28266
      H1    -1.27824   11.36894   -2.83249
       H     4.26690   13.41352   -0.60904
       O     3.97565   12.77277   -1.28146
      H1     4.79686   12.48366   -1.71150
       H     3.97535    7.85847    4.34546
       O     4.64211    8.39146    3.81022
      H1     5.28449    7.75886    3.48951
       H    -3.74619   15.48527    5.29498
       O    -2.77332   15.32495    5.14133
      H1    -2.57977   15.00614    4.29455
       H    -4.26859    8.31932    6.41333
       O    -4.05549    8.49336    5.49202
      H1    -3.35605    9.19567    5.38810
       H    -4.57543   12.57744    5.91861
       O    -4.49611   11.79277    5.41919
      H1    -5.34444   11.34443    5.60510
       H     5.68003   12.60918    1.96296
       O     5.12086   12.57962    2.77059
      H1     4.28669   12.27633    2.39480

