144
frame 7 | Written by MDAnalysis XYZWriter (release 2.4.3)
       H    -2.82045  -15.05003  -10.42509
       O    -3.58232  -15.51448  -10.72997
      H1    -4.38128  -14.94923  -10.61356
       H    -7.64159   -8.36252  -17.64333
       O    -7.91671   -9.29721  -17.66568
      H1    -7.86862   -9.64629  -18.52516
       H   -14.16480  -13.59362  -17.02864
       O   -13.96654  -13.14894  -17.88487
      H1   -14.63557  -12.46797  -17.84254
       H    -3.86353  -19.40242  -14.57917
       O    -4.76819  -19.05640  -14.62986
      H1    -5.14280  -19.00780  -13.71811
       H   -10.67031  -16.08237  -16.90929
       O   -11.41124  -15.79417  -16.31837
      H1   -11.14512  -14.95099  -15.89752
       H    -9.36520  -12.97083  -18.35869
       O    -9.92172  -12.98282  -19.11184
      H1    -9.28522  -12.66205  -19.80727
       H    -5.68157  -18.47679  -16.13647
       O    -6.27117  -18.10531  -16.82007
      H1    -6.60033  -18.88303  -17.27088
       H    -7.47073  -15.59164  -14.28759
       O    -7.88403  -16.06162  -13.49145
      H1    -7.30467  -16.85155  -13.30080
       H    -5.17536  -11.51326  -15.23795
       O    -4.90524  -12.37206  -15.04305
      H1    -4.03340  -12.37101  -15.48697
       H    -7.25370  -12.01885  -11.18195
       O    -7.36533  -11.56977  -11.98026
      H1    -6.47983  -11.37690  -12.30140
       H     0.22219  -18.03371  -15.56083
       O     1.07603  -18.41949  -15.49779
      H1     1.00409  -19.09777  -14.88043
       H   -11.87323  -16.85521  -11.90721
       O   -11.31581  -16.20511  -11.46140
      H1   -10.75955  -16.62578  -10.76489
       H   -10.88179  -10.73597  -13.32572
       O   -11.50299  -10.95496  -14.03362
      H1   -11.11487  -11.72788  -14.40751
       H    -3.70032  -16.87058  -13.90687
       O    -4.15566  -16.00964  -13.66702
      H1    -3.87746  -15.75996  -12.76469
       H   -14.72096  -16.49503  -19.02026
       O   -14.09694  -17.22684  -18.71901
      H1   -13.97635  -17.83114  -19.45675
       H    -9.03714  -13.98860  -11.83175
       O    -9.90114  -13.92523  -12.18019
      H1   -10.33779  -14.78882  -11.94805
       H    -1.92335  -10.86421  -17.09035
       O    -1.44662  -11.74079  -17.08939
      H1    -1.42699  -12.12478  -17.99432
       H    -7.16404  -15.44702  -11.96417
       O    -6.80327  -15.00538  -11.14950
      H1    -6.34923  -14.22486  -11.59091
       H   -13.12351  -17.42584  -14.66712
       O   -12.32897  -17.09709  -14.24479
      H1   -11.92177  -16.61769  -15.00900
       H    -7.94184   -9.43647  -15.89182
       O    -7.92820   -9.40352  -14.89570
      H1    -8.12479   -8.49444  -14.63428
       H    -5.76014  -15.37365  -14.76318
       O    -6.18328  -14.89937  -15.50709
      H1    -5.61055  -14.13945  -15.62075
       H   -10.68242   -9.61982  -19.22884
       O   -10.35353   -8.70206  -19.45474
      H1    -9.45406   -8.62942  -18.94106
       H    -9.91038  -13.31584  -14.17155
       O   -10.18776  -13.18221  -15.07396
      H1    -9.40340  -12.97759  -15.54227
       H   -14.96571  -12.95746  -15.00948
       O   -14.83341  -13.90644  -15.14275
      H1   -14.04770  -14.04503  -14.60273
       H    -4.90311  -10.13408  -12.84091
       O    -4.80776  -10.65222  -11.99607
      H1    -4.14223  -10.21141  -11.44596
       H    -5.90273  -18.53882  -11.92530
       O    -6.53144  -18.52701  -12.63218
      H1    -7.07679  -19.28035  -12.45844
       H    -4.42121  -18.19880  -17.97544
       O    -3.53771  -18.18084  -18.29749
      H1    -3.52898  -17.53001  -19.00698
       H   -12.47267  -10.85623  -19.55820
       O   -11.71215  -10.95301  -18.99385
      H1   -11.25841  -11.78046  -19.15909
       H    -5.25907  -13.25582  -12.95180
       O    -5.03073  -13.20769  -12.02177
      H1    -4.96274  -12.21924  -11.94490
       H    -9.01351  -10.74615  -12.06408
       O    -9.94977  -10.60441  -11.89801
      H1    -9.98838   -9.63991  -11.76562
       H    -2.86318  -12.81834  -17.61112
       O    -3.65491  -13.35040  -17.70493
      H1    -3.60310  -14.21687  -17.26148
       H   -15.07988  -14.59052  -18.71102
       O   -15.85308  -15.15128  -19.02625
      H1   -16.34319  -15.23530  -18.23679
       H    -0.39184  -16.47186  -18.55737
       O    -0.54491  -15.72807  -19.13416
      H1     0.17174  -15.84692  -19.82323
       H     1.29843  -13.36007  -15.93076
       O     1.04340  -12.40327  -16.12445
      H1     0.15135  -12.44507  -16.47927
       H    -3.42679   -9.37950  -17.27258
       O    -3.23422   -9.81859  -16.43510
      H1    -3.72089   -9.37015  -15.75315
       H    -6.05560   -9.48665  -14.64812
       O    -5.17555   -9.33743  -14.35054
      H1    -5.04255   -8.39296  -14.07141
       H    -3.75310   -9.34644  -19.68296
       O    -4.17545   -8.82856  -18.99046
      H1    -4.99934   -8.45586  -19.37878
       H   -12.66638  -12.96863  -12.34354
       O   -13.05073  -13.83949  -12.60310
      H1   -12.44092  -14.49728  -12.25616
       H    -2.14488  -15.78264  -16.30449
       O    -2.63939  -15.07924  -15.81170
      H1    -3.23031  -15.46776  -15.11941
       H    -2.66237  -13.44074  -13.69289
       O    -2.02207  -13.02981  -13.16508
      H1    -2.36330  -13.07703  -12.25884
       H    -9.52937  -17.86621  -17.86363
       O    -9.65057  -17.02631  -18.25507
      H1    -8.73340  -16.67027  -18.27982
       H    -6.60631  -16.49534  -18.02488
       O    -7.11887  -15.72453  -18.06832
      H1    -7.12531  -15.49511  -17.15329
       H    -6.54184  -13.90747  -18.63456
       O    -6.22522  -12.98462  -18.75373
      H1    -5.34958  -12.98162  -18.30624
       H    -1.59476  -18.29268  -15.78585
       O    -1.68907  -17.52856  -16.38052
      H1    -2.34472  -17.83734  -17.01518
       H   -10.69996  -17.93716  -14.02824
       O    -9.77408  -18.21916  -13.89851
      H1    -9.28772  -17.40044  -13.72711
       H    -4.16605  -17.35744  -10.67796
       O    -4.71085  -18.14655  -10.53735
      H1    -5.28052  -17.93157   -9.79364
       H    -7.41355  -12.26624  -17.68418
       O    -8.19030  -12.02536  -17.14638
      H1    -8.23097  -11.09811  -17.28501
       H   -12.12647  -10.60475  -17.13993
       O   -12.70048  -10.35675  -16.34044
      H1   -12.12093  -10.49715  -15.57920

