144
frame 2 | Written by MDAnalysis XYZWriter (release 2.4.3)
       H    14.66793  -12.69170    3.94983
       O    13.85533  -12.50521    3.39226
      H1    13.17457  -13.16875    3.70653
       H    16.67676  -13.98737    0.29032
       O    16.63737  -13.10824   -0.11308
      H1    16.29412  -13.21678   -0.99367
       H    10.19223  -13.14905    0.37177
       O     9.24487  -12.90501    0.53747
      H1     9.14828  -12.14092   -0.01915
       H    11.06149  -14.01108    3.53510
       O    11.77213  -14.41027    4.09271
      H1    11.78520  -15.34818    3.85289
       H     8.63426   -9.47018    6.93237
       O     8.09517   -9.40304    6.07495
      H1     8.60947  -10.04931    5.47574
       H    17.45477  -11.60079   -0.25848
       O    18.03453  -10.87509   -0.51321
      H1    18.54749  -10.63175    0.27767
       H    14.58552   -4.34523    2.52822
       O    13.91508   -4.85186    2.95754
      H1    14.51689   -5.56916    3.38169
       H    13.02162  -10.28447    0.13560
       O    12.16846   -9.89436   -0.18369
      H1    11.88948  -10.60064   -0.80724
       H    16.85499   -9.73970    0.24415
       O    16.64401   -8.86531    0.57742
      H1    15.93792   -8.88758    1.28146
       H    13.37927   -5.45180   -4.07398
       O    14.11016   -5.48614   -3.44065
      H1    14.02661   -6.40205   -3.06585
       H    14.10395  -11.79136    1.90536
       O    14.26963  -11.66084    0.95246
      H1    15.06171  -12.16378    0.83425
       H    13.39513   -4.53206   -2.41167
       O    12.85901   -4.23179   -1.64654
      H1    11.95123   -4.26263   -1.94180
       H    17.75068  -10.85109    2.91262
       O    17.28552  -11.02806    3.74870
      H1    16.50854  -10.45253    3.77839
       H    11.90190   -4.01374    4.80102
       O    12.55145   -4.42867    5.40463
      H1    13.03455   -5.01634    4.75671
       H    15.98725  -12.77802    6.08554
       O    15.89464  -12.91914    5.11609
      H1    16.55696  -12.27623    4.75704
       H    14.09821   -9.40988    6.41143
       O    14.54006  -10.11666    5.91555
      H1    15.19033  -10.49323    6.56980
       H    12.88129   -4.35633    7.40976
       O    13.60452   -3.94125    7.99494
      H1    14.00102   -3.26063    7.38396
       H    13.72670   -8.67089    2.96537
       O    14.65625   -8.72162    2.87207
      H1    15.04519   -8.19819    3.58340
       H    13.15306  -11.27323    4.00208
       O    12.43363  -10.65498    4.36342
      H1    12.97159  -10.16926    5.03327
       H    18.24878   -5.44312   -0.10766
       O    17.45296   -5.11198   -0.47767
      H1    17.43396   -4.13246   -0.27110
       H     8.56108   -8.59322    1.50326
       O     8.62327   -9.59487    1.61853
      H1     8.80800   -9.92415    0.71027
       H    16.55590   -6.56657    4.33288
       O    15.65767   -6.94975    4.60607
      H1    15.82967   -7.36779    5.45439
       H    12.86479  -13.05849    0.44250
       O    11.98986  -13.09619   -0.01020
      H1    11.82256  -13.99190   -0.37256
       H    14.24171   -3.53452    5.40425
       O    14.70540   -2.72825    5.70664
      H1    15.67629   -2.85715    5.60898
       H    14.60232   -8.63171    9.84846
       O    15.03106   -9.07693    9.11204
      H1    14.50238   -9.80910    8.75182
       H    10.25057   -8.61728    4.46058
       O    10.67920   -7.74484    4.43066
      H1    10.86549   -7.60308    3.51996
       H    13.19663   -9.46576   -2.22086
       O    13.92975   -9.27643   -2.77472
      H1    14.61334   -8.87878   -2.29403
       H     9.28310  -10.39963    3.17510
       O     9.47775  -10.70228    4.09104
      H1    10.48787  -10.77349    4.09453
       H     9.10415   -7.15249   -0.71805
       O     8.67780   -7.40092   -1.48773
      H1     9.39559   -7.64032   -2.07108
       H    16.04090   -2.85077    0.99649
       O    15.10772   -3.15620    1.06108
      H1    15.08020   -3.77330    0.26245
       H    19.59032  -10.48919    6.01508
       O    19.24454   -9.80643    5.35951
      H1    18.52741  -10.27323    4.84956
       H    14.58738   -4.96246    8.94286
       O    15.23917   -5.53160    9.41203
      H1    15.69434   -5.97981    8.66707
       H    12.05745   -4.00708    2.92734
       O    11.24886   -3.58111    3.16280
      H1    10.60469   -4.30472    3.29468
       H    15.29510  -12.26689    7.98559
       O    16.00899  -11.77228    7.54220
      H1    16.76025  -11.50064    8.16034
       H     8.31521   -5.47044    3.86968
       O     9.21893   -5.39160    4.15130
      H1     9.48516   -6.22394    4.64644
       H    12.06059   -7.58053    7.02498
       O    12.52332   -8.03923    6.31837
      H1    11.82904   -7.87294    5.55190
       H    18.23650   -8.61828    1.87999
       O    18.90472   -8.48157    2.53169
      H1    19.55111   -7.95201    2.02538
       H    15.94270  -15.84145    3.79575
       O    15.11759  -15.27084    3.70378
      H1    15.25865  -14.59783    4.42093
       H    12.93951   -5.53415   -0.60618
       O    13.07369   -6.45975   -0.17775
      H1    14.01888   -6.65152   -0.19600
       H    18.44814   -6.88823    3.69812
       O    18.20231   -6.15135    4.29648
      H1    18.47612   -5.32743    3.84029
       H    18.84570   -8.39405    6.66039
       O    18.67435   -7.82454    7.39830
      H1    18.90775   -6.97246    7.11275
       H    17.28110  -15.76131    1.52909
       O    16.36712  -15.90694    1.40490
      H1    15.89966  -15.45686    2.14603
       H    11.99757   -7.41222    1.03086
       O    11.45767   -7.94183    1.58141
      H1    11.57093   -8.83841    1.21633
       H    15.45176   -7.93120    7.95290
       O    15.88719   -7.24251    7.41227
      H1    16.79771   -7.60588    7.51914
       H     9.46352   -6.93341    1.81280
       O     8.65898   -6.95374    1.29123
      H1     7.97203   -6.63462    1.93440
       H    15.73131   -6.57027   -1.21466
       O    15.59561   -7.46877   -1.49366
      H1    16.17213   -7.94675   -0.96171
       H    11.43734  -12.48652   -1.60457
       O    10.86442  -12.20531   -2.29555
      H1    11.11077  -12.65472   -3.11158
       H    19.08168  -10.95499   -3.32314
       O    18.99695  -10.09419   -2.90720
      H1    18.62307  -10.29793   -1.95626

