144
frame 10 | Written by MDAnalysis XYZWriter (release 2.4.3)
       H     8.80973    5.10586  -13.97918
       O     8.25163    4.93851  -13.24794
      H1     8.15982    5.76371  -12.76255
       H    13.11173    9.43661  -13.18336
       O    13.44453   10.28817  -13.46327
      H1    13.81317   10.68066  -12.59954
       H    14.45546    4.19819  -18.72865
       O    15.04021    4.88990  -19.07694
      H1    15.63279    4.38382  -19.65654
       H    12.98723   12.95055  -16.90356
       O    13.80620   13.41335  -16.93897
      H1    14.34202   13.07606  -16.19876
       H    14.18376    1.27035  -15.03557
       O    14.43617    0.93508  -15.88611
      H1    15.33229    0.49828  -15.74186
       H    13.46039    2.14057  -18.82951
       O    14.03672    2.47989  -18.14841
      H1    14.01603    1.93876  -17.33251
       H    13.34919   11.69299  -10.95822
       O    14.11381   12.04445  -11.44965
      H1    13.83542   12.92792  -11.65164
       H    15.66660   11.74521  -12.07246
       O    16.46256   11.44597  -12.56684
      H1    17.20285   11.61586  -11.97668
       H    14.71238    8.56912   -9.04923
       O    14.29733    8.43795   -9.91583
      H1    13.76146    9.25644  -10.02654
       H    13.83455    6.79754  -16.08911
       O    14.48457    7.26754  -16.59439
      H1    15.20763    6.63400  -16.77668
       H    12.77489    3.52809  -12.04967
       O    13.20467    4.33458  -12.30497
      H1    14.15024    3.96841  -12.36755
       H     6.47375    9.84946  -16.28272
       O     7.06405    9.49737  -15.57222
      H1     7.77306   10.13805  -15.55401
       H    16.82749   10.03061  -15.68888
       O    17.39548   10.72468  -15.99778
      H1    17.93797   10.43619  -16.69431
       H    12.63488    6.76200  -14.18847
       O    12.41113    6.38016  -15.09544
      H1    12.54406    5.42792  -14.97223
       H    13.98969    7.51718  -12.40670
       O    13.07100    7.67237  -12.64871
      H1    12.41414    7.34753  -12.04571
       H     7.36319    5.18289  -16.25725
       O     8.31628    5.32886  -16.33059
      H1     8.43514    6.19573  -15.84760
       H    10.48490    0.94812  -16.02930
       O     9.87200    1.52312  -15.51075
      H1     9.52713    0.94081  -14.81726
       H    15.08516    8.46663  -15.64575
       O    15.47682    9.01508  -14.95444
      H1    14.76534    9.57318  -14.64059
       H    18.35194    9.54515  -19.20531
       O    18.64078    9.79409  -18.33038
      H1    19.50169   10.21285  -18.35048
       H     7.87680    8.41319  -12.20186
       O     8.13314    7.48025  -12.36294
      H1     8.48569    7.47498  -13.29380
       H    16.08570   12.14944  -15.50869
       O    15.74398   12.78010  -14.88702
      H1    15.89292   12.33068  -14.04877
       H    11.66699    6.95105  -18.29217
       O    10.99933    6.64164  -17.66759
      H1    11.44564    6.41569  -16.83444
       H     9.47201    4.27191  -17.09239
       O    10.12613    3.82666  -17.73944
      H1    10.55786    4.63274  -18.01454
       H    10.84643   11.08418  -19.73539
       O    11.10398   10.34014  -19.23056
      H1    12.06719   10.39667  -19.27202
       H    18.02906    5.27694  -11.95669
       O    18.97768    5.19841  -11.80584
      H1    19.22198    5.11936  -12.73810
       H    16.54461    7.76296  -12.56901
       O    15.83319    7.23289  -12.92813
      H1    15.57403    7.63817  -13.73770
       H    11.96021   11.78209  -13.20578
       O    11.25079   12.39812  -13.04358
      H1    11.11347   12.36516  -12.09825
       H    17.15014    4.09417  -15.90869
       O    17.57188    3.63490  -15.14186
      H1    17.27232    2.67089  -15.23191
       H    13.17790    2.41558  -13.67825
       O    13.28014    1.53162  -13.36864
      H1    13.93337    1.58928  -12.65602
       H     9.68167    7.57533  -11.68951
       O    10.51197    7.64177  -11.09793
      H1    10.22947    6.98463  -10.43359
       H     8.25157    8.13818  -15.46282
       O     9.07059    7.65355  -15.20605
      H1     9.81224    8.18115  -15.60514
       H    18.62057    3.60334  -11.14850
       O    18.18521    2.74552  -11.04706
      H1    17.33640    2.81141  -11.52405
       H    13.20947    3.62250  -16.40933
       O    12.71573    3.62927  -15.61157
      H1    11.89978    3.18975  -15.89393
       H    16.42442    8.21658  -10.46918
       O    17.31474    8.48319  -10.88797
      H1    17.15950    9.28742  -11.44622
       H    14.27425   12.25118  -18.51787
       O    14.38021   11.92043  -19.41066
      H1    15.27182   12.15504  -19.78156
       H    19.70278    7.07029  -17.21531
       O    18.79888    7.35365  -16.95193
      H1    18.62447    8.06967  -17.57745
       H     9.85320    2.19284  -18.74517
       O    10.06975    1.33983  -19.16670
      H1    11.04168    1.40520  -19.23571
       H    15.53553    1.07282  -11.25160
       O    15.19543    1.96919  -11.34515
      H1    14.50795    1.90600  -10.67041
       H    13.66708    7.15247  -17.96978
       O    13.28536    7.12151  -18.85647
      H1    13.83124    6.41306  -19.20840
       H    10.72380   12.52975  -16.69340
       O    11.43184   11.89686  -16.71686
      H1    11.14891   11.21726  -17.34638
       H    17.56594    6.04270  -16.95686
       O    16.77481    5.47965  -16.79857
      H1    16.50427    5.26398  -17.73352
       H    11.97457    1.98469  -12.16795
       O    11.51598    2.32450  -11.36411
      H1    10.59793    2.55056  -11.66110
       H     7.28886    6.48641  -19.10896
       O     7.57619    7.14311  -18.40967
      H1     7.88552    6.55504  -17.66557
       H    13.30653    7.01662   -9.95468
       O    12.85817    6.19287   -9.89632
      H1    12.97884    5.70431  -10.72064
       H     9.77461   11.67517  -14.09125
       O     8.81325   11.59851  -14.37199
      H1     8.36780   11.07341  -13.68482
       H    20.16788   11.24160  -13.93613
       O    19.27643   11.60285  -13.99480
      H1    18.88522   11.02573  -14.65944
       H    15.73658    5.45234  -12.88316
       O    15.96526    4.49007  -12.91561
      H1    16.57435    4.41170  -13.61763
       H    19.06487    3.43602  -14.44754
       O    19.94396    3.52592  -14.01627
      H1    20.20278    2.65104  -13.67474

