144
frame 0 | Written by MDAnalysis XYZWriter (release 2.4.3)
       H    17.30267    4.84586    6.40557
       O    17.30596    3.97010    6.84108
      H1    16.53380    3.98729    7.49805
       H    16.66686    6.72114    5.07545
       O    17.41722    6.20607    5.11377
      H1    18.25174    6.73900    4.98264
       H     9.59911    6.38662   10.45453
       O     9.68464    7.30174   10.17821
      H1     8.87649    7.80380   10.50448
       H    18.27654    5.28942   11.16520
       O    17.69751    5.50082   11.85878
      H1    17.36377    4.71309   12.35427
       H    10.95444    3.26337   15.00265
       O    10.65276    3.70157   14.22811
      H1    10.77833    3.05258   13.52552
       H    14.66790    2.72132    9.15535
       O    15.54458    3.11154    8.98616
      H1    15.39269    4.02595    9.37666
       H    10.94046    9.14672   13.73583
       O    11.32444    9.29454   12.87373
      H1    11.19773    8.43652   12.41696
       H    12.17167    0.60930   13.35501
       O    12.72109   -0.21242   13.66247
      H1    13.26289   -0.35208   12.82939
       H    14.96996    0.17551   10.97903
       O    14.45030   -0.52738   11.45696
      H1    14.30866   -1.25243   10.83734
       H    13.17253    2.11111    6.59564
       O    13.32517    1.72612    5.68984
      H1    13.25619    2.48615    5.07179
       H    11.71015    8.73422    8.60391
       O    11.58461    9.30372    7.84361
      H1    11.50019   10.15650    8.22011
       H    12.68022    4.55104    5.08973
       O    12.61289    3.94216    4.33368
      H1    11.64202    3.77620    4.30094
       H     9.46627    7.35033    4.49410
       O    10.29757    6.92546    4.84436
      H1    10.98872    7.05829    4.22326
       H    15.00025    9.97957    8.44960
       O    15.19576    9.33405    9.19480
      H1    15.70527    8.67703    8.79799
       H    16.00738    2.29098   12.26053
       O    15.70659    2.91233   13.00054
      H1    15.25219    2.41022   13.64892
       H    13.08893    5.99450   14.25387
       O    12.59715    5.57145   13.57733
      H1    12.02233    4.85124   13.84873
       H    14.75443    9.69318   11.30747
       O    14.42334    9.90332   12.15099
      H1    13.47453    9.64275   12.03354
       H    12.92845    6.03617    7.01776
       O    12.70319    6.01048    6.09870
      H1    11.84992    6.49104    5.96898
       H    18.91075    9.01968    7.07100
       O    19.06778    8.39292    7.78138
      H1    18.32755    7.74510    7.81741
       H    16.09272    6.80006    8.38156
       O    16.47264    7.38004    7.72260
      H1    16.09438    7.24752    6.87180
       H     9.45672    6.77765    8.25177
       O     9.22742    6.22761    7.52724
      H1     9.35515    6.62629    6.67497
       H     9.99055   10.07649    5.54750
       O     9.02629   10.20215    5.77108
      H1     8.75023   11.05284    5.39448
       H     7.01309    6.51373    7.45365
       O     6.18819    6.07637    7.23964
      H1     5.45164    6.42692    7.74171
       H    15.16408    8.00654    4.67451
       O    15.01764    7.42136    5.40230
      H1    14.17150    7.01188    5.43872
       H     8.86770    3.96831   14.25056
       O     7.89025    3.99623   14.04380
      H1     7.47541    4.80368   14.39855
       H    12.30281    6.72209   11.75118
       O    12.29349    7.34782   10.98471
      H1    11.34310    7.34910   10.66813
       H    15.15690   11.46833    7.19057
       O    14.23531   11.12119    7.33114
      H1    13.90719   10.99867    6.43652
       H    16.31303    1.97670   10.17425
       O    16.29622    1.38536   10.90608
      H1    17.18484    0.95013   10.83185
       H     9.85095   12.11575   12.30956
       O    10.25722   11.51788   11.70490
      H1    10.50385   10.69438   12.27583
       H    11.59733   -0.91348    9.92831
       O    11.22003    0.03671    9.99898
      H1    10.43252    0.06935    9.38120
       H    12.64083    5.95043    9.82979
       O    12.57592    5.39515    9.05166
      H1    11.81493    4.83593    9.23351
       H    11.80746   10.44499    6.38899
       O    11.80787   10.79899    5.49501
      H1    12.02334   11.73110    5.61245
       H    13.50251    4.67020   12.17622
       O    13.71635    3.82677   11.72862
      H1    14.50636    3.42502   12.11690
       H    10.53927    3.50286    7.45182
       O    10.69025    3.38930    8.37388
      H1    10.08643    2.72485    8.68991
       H    16.31818    2.40763    6.68415
       O    16.11280    1.43080    6.66280
      H1    15.15424    1.39739    6.63233
       H    18.83896   10.36795   10.26620
       O    17.88742   10.40677   10.58988
      H1    17.47825    9.54630   10.28329
       H     9.59627    3.69454   10.49579
       O     9.56693    4.36477   11.25708
      H1     8.94468    4.03570   11.95577
       H    10.42918   -0.58317    6.10070
       O    10.59758    0.11026    5.51212
      H1    10.01999   -0.08516    4.73172
       H    15.49192    8.16680   12.58880
       O    15.63606    7.28570   13.00485
      H1    16.35581    6.93047   12.46253
       H    11.48734    1.31131   11.61045
       O    11.53922    1.78206   12.44626
      H1    12.12684    2.49800   12.18943
       H    12.25086    2.49763    8.51013
       O    12.92630    1.90224    8.82328
      H1    12.42339    1.17953    9.26941
       H     7.12224    8.37982   12.08997
       O     6.95215    8.33017   11.14852
      H1     6.94412    9.25349   11.03084
       H    13.53083   12.25110    9.92698
       O    14.38048   12.27768   10.45126
      H1    14.42765   11.51824   11.05374
       H    14.60712    5.66265    9.71645
       O    15.56454    5.72004    9.70861
      H1    15.84862    5.66251   10.60937
       H     8.38419    0.71795   10.22336
       O     8.62687    1.47708    9.65179
      H1     8.02088    1.34653    8.92637
       H    14.57662    7.11445   14.91488
       O    13.97513    6.76799   15.55564
      H1    13.80302    7.60316   16.04343
       H    10.63892    2.08594    5.67696
       O    10.24231    2.94381    5.64838
      H1     9.31482    2.78248    5.40447
       H     6.06271    4.23145    7.80212
       O     6.44251    3.46556    8.27918
      H1     7.24026    3.74048    8.75034

