144
frame 3 | Written by MDAnalysis XYZWriter (release 2.4.3)
       H     2.07039   18.53745   -7.72598
       O     2.05131   17.80796   -8.37764
      H1     2.94319   17.59730   -8.47668
       H    -4.92343   11.32274  -13.68116
       O    -5.50503   11.77333  -13.00871
      H1    -6.15856   11.10028  -12.80261
       H    -3.71445   14.16251  -11.59994
       O    -4.27939   13.56520  -11.16253
      H1    -4.62853   12.94728  -11.80928
       H    -6.35726   14.77673  -15.32967
       O    -5.80440   14.73239  -16.13549
      H1    -5.66204   15.62302  -16.50914
       H    -2.78800   17.00951  -13.05958
       O    -2.57052   17.68889  -13.66115
      H1    -2.67269   17.40717  -14.63423
       H    -4.21536   18.64030  -13.21632
       O    -5.18265   18.59891  -13.25674
      H1    -5.61501   19.27578  -12.65081
       H     1.65399   16.47703  -12.36978
       O     1.36096   15.70407  -11.85248
      H1     0.87382   16.12509  -11.14983
       H   -10.23946   16.86955   -8.58805
       O    -9.81652   17.22028   -9.34888
      H1    -9.06687   17.72852   -9.03848
       H     1.82385   15.04901  -15.33094
       O     1.74347   15.98301  -15.71407
      H1     1.24796   15.83538  -16.54816
       H     0.79368   14.66900  -19.32463
       O     0.44640   15.03440  -18.51250
      H1    -0.28930   14.48936  -18.17584
       H    -5.30120   17.47329  -17.95036
       O    -4.52892   16.89916  -17.74733
      H1    -4.37529   16.25895  -18.50988
       H    -1.30377   18.94258  -11.83894
       O    -1.16074   19.10168  -10.87276
      H1    -2.02447   19.14958  -10.45816
       H    -2.13554   17.89402   -6.14425
       O    -1.59029   17.31611   -5.57071
      H1    -0.96308   17.89903   -5.11958
       H    -2.05189   18.65650  -16.82660
       O    -2.36070   17.88662  -16.29973
      H1    -2.98417   17.35762  -16.84199
       H    -0.06714   13.64406  -12.70229
       O    -0.95303   13.70520  -12.43876
      H1    -0.94841   14.22245  -11.64194
       H   -11.73463   15.68906  -13.71519
       O   -11.01561   15.03792  -13.55852
      H1   -10.67875   14.92480  -14.46046
       H    -7.11232   17.37512  -18.48175
       O    -7.05719   18.16883  -17.94153
      H1    -7.25951   18.94565  -18.50337
       H    -6.30641   13.78016  -11.02519
       O    -7.17730   13.74990  -10.72920
      H1    -7.72718   14.37511  -11.21879
       H    -9.20471   18.52870  -12.59201
       O    -8.67059   18.32134  -11.79680
      H1    -8.19375   17.50167  -12.03060
       H     2.34247   17.26535  -14.40095
       O     2.62398   17.85427  -13.57426
      H1     2.53880   18.75558  -13.94903
       H    -6.30722   16.55361  -11.32664
       O    -6.79976   16.40388  -12.12906
      H1    -6.32973   17.06972  -12.63136
       H    -8.25998   17.67155  -16.34504
       O    -8.47391   17.09101  -15.58249
      H1    -8.77994   17.76616  -14.97014
       H    -1.11346   11.75949  -10.21360
       O    -2.05681   11.51049  -10.25728
      H1    -2.61454   12.26575  -10.38834
       H    -4.94628   16.27507   -5.41225
       O    -5.44083   17.08101   -5.58590
      H1    -5.72579   17.42390   -4.71867
       H    -7.27886   18.52233   -7.67443
       O    -6.94828   19.09350   -8.33454
      H1    -6.46936   18.41262   -8.86095
       H    -1.98042   13.22961  -17.99517
       O    -1.31687   13.48113  -17.32369
      H1    -1.93587   13.78439  -16.56423
       H    -8.11674   16.26849   -7.23282
       O    -7.97320   17.10508   -6.75611
      H1    -7.19260   16.89873   -6.26489
       H    -8.89816   15.22142  -15.30512
       O    -9.47587   14.53239  -15.70775
      H1    -9.10187   13.72924  -15.25490
       H    -6.95985   12.79594  -18.64691
       O    -6.38053   12.57255  -17.82199
      H1    -6.46132   13.34149  -17.24495
       H    -4.08612   13.84857  -15.12258
       O    -3.15915   13.86027  -15.35847
      H1    -2.75027   13.55081  -14.53023
       H    -0.83564   18.68811  -13.97626
       O    -0.44348   19.50186  -13.74680
      H1     0.46618   19.16542  -13.53493
       H    -6.80761   13.22552  -13.31988
       O    -7.13316   13.92143  -13.86288
      H1    -7.47316   14.60654  -13.26584
       H     0.37504   17.35894  -18.16254
       O     0.62462   18.29146  -18.16225
      H1     0.59454   18.62334  -19.09375
       H    -7.70698   14.18291   -8.84046
       O    -7.97746   14.29909   -7.89620
      H1    -8.53661   13.47346   -7.80286
       H    -3.23139   19.70214   -6.50373
       O    -3.47613   18.77171   -6.72070
      H1    -4.32391   18.63388   -6.26005
       H     1.68896   12.78862  -14.56458
       O     0.87247   13.23836  -14.37924
      H1     0.25588   12.63978  -14.82947
       H   -10.94687   18.46846  -14.27104
       O   -10.08506   18.88898  -14.09859
      H1   -10.23165   19.78644  -13.75016
       H   -10.93949   20.04586  -11.27821
       O   -11.15229   19.60966  -10.43042
      H1   -10.72142   18.69713  -10.39335
       H    -3.50700   15.16033   -7.54713
       O    -3.34483   14.98363   -8.47979
      H1    -2.51945   15.36838   -8.75669
       H    -2.06636   16.21171  -11.03802
       O    -2.91159   16.06640  -11.45970
      H1    -3.61002   15.99291  -10.74329
       H    -9.91043   15.45948  -11.88164
       O    -9.44244   15.04863  -11.19623
      H1    -9.30784   15.74056  -10.53922
       H    -2.57249   11.98552   -8.56440
       O    -3.03336   12.37507   -7.78483
      H1    -3.29693   13.24047   -8.18353
       H    -4.75313   16.46556   -9.17912
       O    -5.22716   17.11032   -9.71294
      H1    -4.62014   17.86529   -9.71440
       H    -7.89491   11.97762  -11.14804
       O    -7.98006   11.14961  -11.58012
      H1    -7.60924   10.48016  -10.99879
       H    -3.76922   20.02431   -9.61566
       O    -3.42913   19.12584   -9.40636
      H1    -3.56934   19.12932   -8.43532
       H    -9.90075   19.26292  -15.80216
       O    -9.97448   19.75706  -16.63848
      H1   -10.28551   19.09777  -17.24078
       H    -0.09387   15.99890   -9.03200
       O    -0.59190   16.36999   -9.76894
      H1    -0.81744   17.29008   -9.61501
       H    -5.58192   14.41382  -19.80581
       O    -4.70786   14.05157  -19.58101
      H1    -4.96582   13.60926  -18.74231

