144
frame 1 | Written by MDAnalysis XYZWriter (release 2.4.3)
       H    -9.90620  -19.42854   -7.17516
       O    -9.90105  -19.77777   -6.28034
      H1   -10.65091  -19.34028   -5.87413
       H   -10.30454  -16.75407   -3.08559
       O    -9.79082  -16.09313   -3.54021
      H1    -9.23254  -16.58027   -4.13379
       H    -8.81526  -18.38227    1.32012
       O    -9.28236  -18.94049    0.69265
      H1   -10.20713  -18.81744    1.01832
       H   -12.96864  -18.64615   -4.94520
       O   -12.11867  -19.02392   -4.68613
      H1   -12.29052  -19.99438   -4.66113
       H    -4.12108  -17.31127   -4.18453
       O    -3.30499  -16.84121   -4.14338
      H1    -3.01561  -16.66495   -5.06612
       H    -5.84409  -17.49162    6.68293
       O    -5.76379  -17.02407    5.83084
      H1    -6.04156  -17.66318    5.19552
       H    -9.84189  -16.33870    7.74117
       O    -9.87810  -16.93042    6.91964
      H1    -9.21447  -17.56955    7.00406
       H    -9.87169  -17.25241    2.55791
       O    -9.10101  -17.61074    3.00365
      H1    -9.33857  -18.48430    3.20054
       H    -7.44021  -12.00438    5.43479
       O    -7.16587  -11.60574    4.58761
      H1    -7.86233  -11.74232    3.95435
       H    -5.89438  -20.06813   -1.69019
       O    -6.17342  -19.55224   -0.91765
      H1    -6.61519  -18.75566   -1.34915
       H    -8.46994  -18.48667   -5.68827
       O    -8.21737  -17.55885   -5.45394
      H1    -8.03729  -17.22027   -6.32795
       H    -9.23813  -19.35766    6.95777
       O    -8.29036  -19.17594    6.82138
      H1    -7.87770  -19.86476    6.19011
       H    -9.70944  -12.31331    3.93544
       O    -9.41235  -11.81721    3.15291
      H1    -9.00778  -12.42851    2.53454
       H   -11.25787  -12.38865   -0.09009
       O   -10.37101  -12.18067   -0.48923
      H1   -10.28704  -11.33720   -0.89859
       H   -15.17054  -15.17831    0.15847
       O   -14.68370  -15.36782    1.00203
      H1   -15.26484  -15.82796    1.59672
       H    -9.19616  -18.82437   -1.53037
       O    -9.42375  -19.03812   -2.45698
      H1   -10.39347  -18.91273   -2.44273
       H   -16.55226  -17.16216    3.08828
       O   -16.06532  -17.26451    2.21591
      H1   -16.15898  -18.19715    2.07554
       H    -3.85365  -17.31482    5.14436
       O    -2.90256  -17.39549    5.38186
      H1    -2.50485  -17.85816    4.66257
       H   -12.31858  -16.84749    2.75263
       O   -11.51845  -16.67966    2.19254
      H1   -11.70938  -15.93340    1.66269
       H   -11.17650  -13.37484    5.73628
       O   -10.33634  -13.05961    5.39588
      H1    -9.71439  -13.76917    5.35845
       H    -7.66882  -15.82783    3.12111
       O    -6.91007  -15.43988    2.65361
      H1    -7.15230  -15.62774    1.71123
       H    -5.36517  -11.84628    0.81857
       O    -5.74116  -11.84101    1.73908
      H1    -5.28122  -12.40804    2.34050
       H   -13.60737  -17.44440    6.75175
       O   -14.41856  -17.88849    7.10815
      H1   -14.27847  -18.78308    6.71259
       H    -1.99446  -18.86126    2.37157
       O    -1.90853  -19.44306    3.15124
      H1    -0.97949  -19.29514    3.29723
       H    -6.84899  -18.67863    8.42143
       O    -6.29377  -17.96216    8.83116
      H1    -5.41731  -18.24149    9.01250
       H    -9.29544  -14.78292   -2.24378
       O    -8.83951  -14.04605   -1.86838
      H1    -9.39548  -13.62825   -1.24839
       H    -5.61553  -15.20137   -0.71294
       O    -4.95465  -14.69976   -1.19857
      H1    -4.14259  -15.24292   -1.07432
       H    -5.67311  -18.93306   -3.67284
       O    -5.61678  -18.38940   -4.41878
      H1    -6.47822  -17.93973   -4.58663
       H    -2.77339  -15.31114    6.07607
       O    -3.07878  -14.46170    5.84458
      H1    -3.94890  -14.58617    5.41363
       H    -5.88152  -12.98689    4.27297
       O    -5.15339  -13.63868    4.02405
      H1    -5.74295  -14.26251    3.52032
       H    -9.15089  -15.79768    5.88418
       O    -8.59117  -15.17832    5.40788
      H1    -7.75338  -15.69126    5.29741
       H    -5.11009  -18.63873    0.31400
       O    -4.33676  -18.48807    0.92867
      H1    -4.59193  -18.00278    1.74723
       H    -2.01052  -15.56803    0.69328
       O    -1.83649  -16.18594    1.44674
      H1    -1.68365  -15.59365    2.19043
       H    -6.77886  -14.23467   -3.14589
       O    -6.34772  -14.95531   -3.62145
      H1    -5.50246  -15.10559   -3.09965
       H    -3.72402  -16.23629    2.21558
       O    -4.31771  -16.58377    2.90153
      H1    -5.17136  -16.18593    2.66563
       H    -7.80233  -12.81260   -2.38014
       O    -7.26305  -12.20294   -2.95632
      H1    -6.54014  -12.04630   -2.34813
       H    -4.52314  -11.36759   -1.36982
       O    -5.13629  -11.88571   -0.82924
      H1    -4.83250  -12.78165   -0.93701
       H    -7.25504  -16.52332   -0.73520
       O    -7.04521  -15.87723   -0.03315
      H1    -7.47191  -15.05110   -0.22693
       H    -2.22190  -17.58046   -3.05701
       O    -1.47286  -17.82095   -2.53040
      H1    -1.76185  -18.40429   -1.84638
       H    -7.41627  -12.23959    1.03280
       O    -8.04856  -12.94529    0.82713
      H1    -8.85680  -12.57496    0.40650
       H   -12.68068  -14.05489   -0.70607
       O   -12.91945  -13.50445    0.07386
      H1   -13.52541  -14.06152    0.51412
       H   -12.26082  -14.88123   -5.49141
       O   -11.97040  -15.80265   -5.21205
      H1   -11.08223  -15.72888   -4.86806
       H    -8.07064  -17.58395   -2.57618
       O    -7.22973  -17.21553   -2.28031
      H1    -7.01379  -16.49068   -2.94163
       H    -7.04776  -13.59223    7.09129
       O    -7.12316  -12.60694    7.04144
      H1    -6.28672  -12.34149    7.44846
       H   -12.45905  -17.54058   -1.39385
       O   -11.98334  -17.35856   -2.24655
      H1   -12.38049  -17.87906   -2.95801
       H   -14.29721  -17.38073    3.31379
       O   -13.55046  -17.37356    3.93776
      H1   -13.60692  -16.45564    4.29371
       H   -12.27860  -13.91774   -2.72262
       O   -12.59414  -14.67709   -2.25506
      H1   -12.32351  -15.47956   -2.70225
       H   -12.68829  -18.18510    0.60384
       O   -13.34371  -17.79953   -0.02072
      H1   -13.61136  -16.98221    0.42556

