144
frame 7 | Written by MDAnalysis XYZWriter (release 2.4.3)
       H   -15.76200   -5.62176    9.87055
       O   -16.38532   -6.38358    9.85816
      H1   -17.16793   -6.03435    9.44070
       H    -6.05846   -9.00898    5.79936
       O    -5.98124   -8.33867    6.56576
      H1    -6.91677   -8.11016    6.73742
       H   -14.20212  -11.96106    9.83944
       O   -14.69277  -12.40013    9.16650
      H1   -15.03437  -11.75011    8.60468
       H   -16.87379   -4.81390   13.34111
       O   -16.12176   -4.19312   13.48380
      H1   -16.13767   -4.21314   14.43959
       H    -7.06659   -7.13333    9.77285
       O    -8.01272   -7.20299    9.69105
      H1    -8.22073   -8.14754    9.66391
       H    -9.14525   -5.96362    5.04421
       O    -9.18188   -5.09830    4.60528
      H1    -8.53969   -4.49969    4.98099
       H   -13.78761   -2.24388   15.42812
       O   -13.00504   -1.68207   15.30290
      H1   -12.35384   -2.42980   15.33183
       H   -14.24693  -10.03257   15.21200
       O   -13.95100  -10.83502   15.63540
      H1   -13.25366  -10.55837   16.32874
       H   -13.46385   -8.34297    8.45454
       O   -14.19296   -8.81840    8.85738
      H1   -14.83683   -8.14621    9.05143
       H   -11.19426   -3.79869   17.09413
       O   -11.52243   -4.60625   17.59937
      H1   -11.19803   -5.29716   17.03681
       H   -10.03154   -8.52186   15.77612
       O    -9.56408   -9.30367   15.68010
      H1    -9.57811   -9.49139   14.77347
       H   -17.37974   -7.42842   11.01038
       O   -18.02248   -8.02982   11.47408
      H1   -18.82566   -8.05714   10.90634
       H    -9.56930  -10.03125    9.69507
       O    -8.88867   -9.75251    9.06267
      H1    -8.32312  -10.46937    8.79412
       H    -8.73795  -12.50606   12.07228
       O    -8.25315  -12.42751   12.92601
      H1    -7.43935  -11.85023   12.79320
       H   -11.46502  -10.37778   10.94770
       O   -10.54635  -10.60921   10.92113
      H1   -10.57210  -11.39544   10.32080
       H    -9.81566   -4.60744    8.98532
       O    -9.29945   -4.60762    8.16189
      H1    -9.27673   -5.53034    7.88623
       H    -6.83770   -3.78681   10.84883
       O    -6.76340   -4.09305   11.73431
      H1    -5.82316   -4.41145   11.89257
       H   -14.26562   -5.25920   11.47929
       O   -14.50502   -4.58530   10.85918
      H1   -13.75957   -4.56600   10.27736
       H   -11.74957  -10.98821   13.53486
       O   -10.78813  -11.23173   13.60610
      H1   -10.41221  -11.29408   12.69580
       H    -7.32557   -3.40990    8.64172
       O    -7.45321   -2.71103    9.35022
      H1    -6.52282   -2.44240    9.48610
       H   -10.58169   -3.73606    7.16159
       O   -11.03709   -3.04641    6.67925
      H1   -10.30436   -2.46187    6.39508
       H    -7.24584   -7.68344   15.33274
       O    -7.38542   -7.12485   14.54962
      H1    -8.05559   -7.62362   14.02203
       H   -12.56650    0.22467   11.31522
       O   -12.24682   -0.09805   10.49305
      H1   -12.97849   -0.56176   10.05921
       H   -14.94161  -12.30195   12.69588
       O   -15.27981  -11.38584   12.72539
      H1   -16.22126  -11.54998   12.62211
       H    -4.94896   -7.51439   10.97844
       O    -5.30296   -7.09488   10.23188
      H1    -4.74406   -7.47820    9.52838
       H   -12.43923  -11.82221    6.67067
       O   -12.61600  -11.11382    6.06453
      H1   -11.80083  -10.58247    5.99544
       H   -13.38867   -7.33455   11.87445
       O   -13.94462   -7.07450   12.60706
      H1   -13.37494   -6.41211   13.11609
       H   -12.97631   -3.57388    4.25798
       O   -13.78808   -3.47054    4.76637
      H1   -13.76485   -4.09975    5.48601
       H    -9.71150  -10.33817    5.81875
       O   -10.37870   -9.65247    5.84759
      H1   -10.54052   -9.45920    4.90696
       H   -13.94485  -10.50154   11.76374
       O   -13.27334  -10.46614   11.02956
      H1   -13.56881   -9.74955   10.40287
       H   -12.07816   -5.93241    5.12330
       O   -11.92488   -6.88431    5.08827
      H1   -12.52049   -7.33103    4.54235
       H   -14.88370   -1.93825    8.65617
       O   -14.81988   -1.34470    9.41052
      H1   -15.06954   -1.88313   10.12889
       H    -8.97818   -5.88700   10.69535
       O    -9.68046   -5.58351   11.30796
      H1    -9.27590   -4.90822   11.85329
       H   -11.42769   -7.84306    8.11072
       O   -12.19896   -7.49168    7.75737
      H1   -11.96861   -7.28624    6.75383
       H   -13.74736   -6.70938   16.40309
       O   -14.09295   -5.85462   16.02920
      H1   -15.02097   -5.98704   15.81459
       H   -11.66134   -3.62918   13.24141
       O   -10.90131   -3.03237   13.25052
      H1   -10.82790   -2.57858   12.41157
       H   -12.33685   -6.81837    9.86758
       O   -11.98107   -7.22191   10.66020
      H1   -11.29330   -6.63217   10.93380
       H    -9.36456   -7.32016   12.35709
       O    -9.47436   -8.10595   12.83678
      H1    -9.11547   -8.76835   12.22926
       H    -8.89970   -4.43922   15.89137
       O    -8.65128   -5.28403   16.37737
      H1    -7.93731   -5.72445   15.86766
       H   -10.26644   -7.42276   17.87370
       O   -10.43331   -7.19316   16.94175
      H1    -9.70838   -6.58742   16.70061
       H   -15.36972   -9.95460    7.42469
       O   -15.29539  -10.68225    6.79342
      H1   -14.32291  -10.62886    6.53297
       H    -9.33604   -2.54077   10.12354
       O   -10.23855   -2.29787   10.44994
      H1   -10.32123   -1.31763   10.31279
       H    -8.91541   -7.58115    8.04521
       O    -8.98233   -7.41202    7.10891
      H1    -9.36685   -8.23528    6.82706
       H   -13.46509   -5.88707    7.28520
       O   -14.05311   -5.50261    6.63563
      H1   -14.63585   -4.84555    7.12001
       H   -15.86326   -2.95808    7.15516
       O   -15.52835   -3.47900    7.86920
      H1   -16.25571   -3.74295    8.41691
       H   -13.21169   -4.85110   14.93828
       O   -13.02345   -4.37307   14.09699
      H1   -13.92715   -4.19648   13.84930
       H   -11.61785   -3.36949    9.72197
       O   -12.12917   -4.08662    9.26259
      H1   -12.09608   -3.89021    8.32930
       H   -15.14933   -9.64618   13.51877
       O   -15.02565   -8.92558   14.12168
      H1   -14.50798   -8.24942   13.62140

