144
frame 0 | Written by MDAnalysis XYZWriter (release 2.4.3)
       H    -8.05963    8.89834  -17.19049
       O    -9.02948    8.76231  -17.35783
      H1    -9.43062    8.69198  -16.52775
       H    -7.41606    6.27551  -17.85619
       O    -6.70459    6.19357  -17.19295
      H1    -5.84967    6.16890  -17.73150
       H   -12.49464   10.19318  -13.86066
       O   -12.15017   10.65823  -14.61596
      H1   -12.68145   11.41420  -14.74164
       H    -5.37141   11.60217  -13.44671
       O    -5.06520   12.12850  -12.73392
      H1    -5.18821   11.53121  -12.00739
       H    -4.11233   14.56976  -10.47154
       O    -4.32906   14.49814  -11.43600
      H1    -4.36745   13.62225  -11.79373
       H    -6.38927   14.16697  -15.43726
       O    -6.75696   14.30502  -16.28859
      H1    -6.14847   14.98647  -16.59244
       H    -6.17297   19.64596  -15.14035
       O    -5.38677   19.28035  -14.69178
      H1    -5.45709   18.30656  -14.86058
       H    -4.32502   16.58567  -17.94512
       O    -4.36129   15.61672  -17.86775
      H1    -4.88124   15.48094  -18.71951
       H    -8.32624   16.32494  -18.40511
       O    -7.46182   16.76316  -18.45784
      H1    -7.06698   16.55246  -19.32147
       H    -9.39707   10.57766  -16.16492
       O    -9.66432   11.21620  -15.49185
      H1   -10.29774   10.76566  -14.96445
       H   -13.06149    7.20137  -17.48505
       O   -12.20493    6.86484  -17.89186
      H1   -12.04346    7.32583  -18.71508
       H    -6.08073    7.93337  -17.30427
       O    -6.01476    8.88002  -17.16120
      H1    -5.98190    9.01008  -16.20860
       H    -1.30615   18.56027  -16.60483
       O    -1.89742   18.02582  -17.15252
      H1    -1.48338   17.13611  -16.91621
       H    -1.09235   12.05503  -15.42561
       O    -1.25470   12.91393  -14.93604
      H1    -1.36264   13.66473  -15.48622
       H     0.60949   10.67951  -15.92253
       O    -0.08021   10.15614  -15.59755
      H1    -0.88830   10.15055  -16.15957
       H   -11.12083   16.12764  -14.53797
       O   -11.48164   15.62388  -15.30746
      H1   -10.79388   15.04655  -15.66755
       H    -7.17193   18.14463  -17.51911
       O    -6.94284   18.99140  -17.10638
      H1    -7.42347   19.51913  -17.76923
       H   -10.91986   17.77347  -12.90968
       O   -10.71730   16.91253  -13.30930
      H1    -9.76186   16.80360  -13.33639
       H    -6.41068    9.67878  -18.65277
       O    -6.47838   10.24295  -19.46373
      H1    -6.60721   11.20864  -19.30440
       H    -6.33633    6.87759  -14.24818
       O    -7.11535    7.45507  -14.20458
      H1    -7.13120    7.51219  -13.27313
       H    -4.89450    9.41321  -14.33910
       O    -5.53373   10.06152  -14.69312
      H1    -6.30989    9.89238  -14.13325
       H   -11.76247    9.97182  -16.31246
       O   -11.63173   10.03070  -17.32152
      H1   -11.51517    9.12827  -17.67240
       H    -4.26910    6.90391  -18.90204
       O    -4.49424    6.01335  -18.65673
      H1    -4.95712    5.65081  -19.42485
       H    -7.00792   16.31543  -13.56537
       O    -7.93110   16.16967  -13.81383
      H1    -8.10935   16.83882  -14.55514
       H    -8.39651   18.42740  -16.12655
       O    -8.99865   17.77702  -15.71799
      H1    -9.71327   18.23486  -15.29862
       H   -13.02925   15.00440  -19.67118
       O   -13.58459   15.58267  -19.13784
      H1   -14.15621   16.11208  -19.72466
       H   -12.74129   16.74264  -17.82013
       O   -11.95900   17.21232  -17.48873
      H1   -11.95398   16.80858  -16.59319
       H    -0.95405   13.84932  -19.02371
       O    -0.35963   14.30993  -18.37988
      H1    -0.99450   14.86667  -17.84926
       H   -12.55926   13.06516  -17.42483
       O   -12.84652   13.13875  -16.50245
      H1   -12.10374   13.31831  -16.00105
       H    -8.75213   14.19825  -16.30056
       O    -9.59954   13.88937  -16.63050
      H1    -9.61232   13.01613  -16.24236
       H   -12.24011   10.85837  -18.65270
       O   -12.84511   11.39411  -19.17545
      H1   -12.26733   12.06980  -19.57003
       H    -7.63815   13.29871  -19.45506
       O    -6.86290   12.94414  -18.93619
      H1    -6.86883   13.33255  -18.08395
       H   -10.70539   15.98678  -18.73800
       O   -10.35328   16.01853  -19.64628
      H1   -10.55801   16.88691  -20.10871
       H    -8.96826    6.99476  -17.95981
       O    -9.15349    6.25096  -18.54058
      H1    -9.76589    5.69972  -18.04742
       H    -5.11755   18.82172  -17.53344
       O    -4.39883   18.31865  -17.96235
      H1    -3.61487   18.49173  -17.43590
       H    -3.08093    7.02587  -16.24202
       O    -3.43230    6.65117  -15.39290
      H1    -2.72481    6.01185  -15.18761
       H    -2.47686   15.22447  -16.90246
       O    -1.76289   15.38464  -16.25671
      H1    -2.11307   15.77487  -15.46348
       H    -6.80079   13.16051  -13.01807
       O    -7.68502   13.42598  -13.31244
      H1    -7.57745   14.36600  -13.57499
       H    -9.52729    8.08879  -14.42331
       O   -10.38898    7.99777  -14.83577
      H1   -10.24702    7.09488  -15.22338
       H    -0.72774   10.20209  -19.00223
       O    -1.63048   10.43262  -19.19389
      H1    -2.03434    9.57321  -19.52155
       H    -2.54065    7.26541  -18.46433
       O    -1.68367    6.95992  -18.19168
      H1    -1.68962    5.95968  -18.17859
       H   -13.53612   10.35743  -17.00797
       O   -14.27775   10.60723  -16.43119
      H1   -14.02194   11.53033  -16.38928
       H    -8.52176   13.06190  -11.78431
       O    -9.05322   12.90426  -11.01816
      H1    -9.54842   13.76300  -11.03779
       H     0.51964   12.82225  -17.92511
       O     0.95391   12.05588  -17.47198
      H1     0.88689   11.31692  -18.08016
       H    -7.87018   11.19253  -13.02959
       O    -7.82031   10.28183  -12.63888
      H1    -7.36599   10.36932  -11.74754
       H    -4.94304   15.95095  -12.44592
       O    -5.23382   16.67005  -12.99226
      H1    -5.64133   17.37850  -12.42601
       H    -4.37634    8.67489  -20.04514
       O    -3.83164    8.59699  -19.21514
      H1    -4.31837    9.07442  -18.51583
       H    -3.72725   10.16961  -16.39318
       O    -2.80193    9.97925  -16.57006
      H1    -2.63534   10.26510  -17.47238

