144
frame 11 | Written by MDAnalysis XYZWriter (release 2.4.3)
       H    18.47008    4.89415    5.72108
       O    18.09005    4.11432    6.08467
      H1    17.46594    4.44909    6.69808
       H    18.15650    6.93991    8.25476
       O    18.66076    6.14337    8.49524
      H1    19.32583    6.04123    7.83304
       H    14.84328   -7.97150    3.76990
       O    14.18331   -7.30705    3.48441
      H1    14.59068   -6.65403    2.90336
       H    15.99671    2.84221    2.74915
       O    16.54709    3.27651    2.07711
      H1    16.84394    2.61614    1.46259
       H    17.48146    4.86669    2.15656
       O    18.25191    5.40531    2.40376
      H1    19.02320    4.82167    2.30784
       H    18.54771   -2.77171    0.65667
       O    18.25488   -3.67702    0.51110
      H1    18.29737   -4.27674    1.27887
       H    15.78229    3.18785    8.45290
       O    15.63552    3.75725    7.70814
      H1    15.16872    4.48275    8.09713
       H    12.99661   -3.32302   -1.30666
       O    12.74432   -2.41077   -1.16907
      H1    11.98949   -2.37079   -0.51819
       H    14.20343    5.46875    5.36857
       O    13.81750    4.67657    5.80599
      H1    14.46420    4.24037    6.39898
       H    19.10771   -6.04123    6.91929
       O    18.62004   -5.25225    6.59220
      H1    17.74305   -5.52411    6.27823
       H    18.18852    6.86656   -4.53623
       O    17.76839    6.45629   -3.75729
      H1    17.64089    5.51232   -3.90938
       H    18.26180    0.96104    0.34606
       O    17.81345    1.75958    0.01421
      H1    18.56828    2.41584   -0.12834
       H    16.11163   -1.49920   -4.24258
       O    16.24517   -0.67740   -3.78668
      H1    15.37157   -0.41385   -3.49353
       H    12.85145   -5.77640   -1.69678
       O    13.59818   -5.26333   -1.31249
      H1    13.88575   -5.64770   -0.50322
       H    13.14501   -3.79377    2.30413
       O    12.67594   -4.34454    2.94179
      H1    13.28657   -4.57454    3.68408
       H    19.16311    1.04711    2.70206
       O    19.61895    0.30284    2.27603
      H1    19.97935   -0.22986    2.95616
       H    14.68175    0.37889   -1.35423
       O    14.36850    0.82249   -2.16229
      H1    14.61489    1.73482   -1.93389
       H    18.74709    6.16302    4.05705
       O    18.51638    6.28659    4.96879
      H1    19.25021    6.72481    5.42952
       H    14.53090    3.47946    4.91150
       O    14.90538    2.72597    4.36076
      H1    14.22361    2.07158    4.47768
       H    19.31287    1.95718    7.55215
       O    19.66408    2.77926    7.94424
      H1    19.00626    3.45827    7.52809
       H    17.30938    8.15078    4.86496
       O    16.74299    8.52489    4.19486
      H1    15.99236    7.88489    4.18805
       H    15.75724   -3.92388    3.06015
       O    16.07285   -4.54425    3.80090
      H1    16.06553   -4.00238    4.59745
       H    13.71924   -2.84177    6.51970
       O    14.50819   -3.13491    6.04189
      H1    14.52578   -2.47514    5.32264
       H    16.43925    1.39205    9.49003
       O    15.75045    2.04105    9.76056
      H1    14.88256    1.59320    9.55459
       H    17.34499   -0.75528    9.03770
       O    17.75249    0.10744    8.90470
      H1    18.51118    0.16645    9.58415
       H    16.74317   -3.53997    1.06133
       O    15.72863   -3.45200    1.20402
      H1    15.36194   -3.22708    0.30321
       H    16.90475   -0.13208    4.97700
       O    16.38193    0.35524    4.33465
      H1    16.46989    1.30622    4.38907
       H    12.70321    0.37781   -2.98851
       O    11.74757    0.61055   -2.91793
      H1    11.28825   -0.22960   -3.04250
       H    18.99007   -5.19278    2.70817
       O    18.16760   -5.58139    2.32336
      H1    17.47479   -5.28841    2.98163
       H    16.12620   -3.87166   -2.72697
       O    16.47551   -4.31552   -3.53082
      H1    15.81650   -4.99707   -3.71798
       H    15.30877   -5.27873    6.19617
       O    15.84764   -5.80007    6.75535
      H1    15.92159   -6.71558    6.47907
       H    10.57274   -1.29247    3.29571
       O    11.46859   -1.42850    2.92343
      H1    11.92942   -0.57846    2.93742
       H    16.22660    2.65292   -0.58284
       O    15.59559    3.11235   -1.12090
      H1    16.15445    3.15910   -1.90975
       H    16.44492   -2.78304   -0.94499
       O    15.59429   -2.73027   -1.42669
      H1    15.39362   -1.80027   -1.59393
       H    16.60649    3.45202   -4.31893
       O    17.30981    3.71947   -3.70308
      H1    18.17639    3.59149   -4.11462
       H    15.87004   -6.58373    0.47723
       O    15.15839   -6.00904    0.90226
      H1    15.44293   -5.10177    0.88797
       H    18.84922   -3.28031    6.70664
       O    19.05239   -2.36546    6.82605
      H1    19.64912   -2.06747    6.15281
       H    13.83334   -1.24638   -0.32569
       O    14.45988   -0.72341    0.19496
      H1    14.23544   -0.95610    1.13913
       H    18.73693   -8.37402    3.87502
       O    18.23156   -7.58240    4.20542
      H1    18.11304   -7.03482    3.43273
       H    17.73596    3.19094    3.43678
       O    18.43564    2.65800    3.80645
      H1    18.39650    2.88473    4.73034
       H    18.71604    0.73648   -5.57289
       O    17.98759    0.42240   -6.14524
      H1    17.45741   -0.13493   -5.51563
       H    20.03983    8.07261   -2.04164
       O    20.05017    7.36684   -2.76615
      H1    19.18787    7.12184   -3.03627
       H    15.08914   -0.81988    4.03810
       O    14.56878   -1.61466    3.87100
      H1    13.65734   -1.26671    3.93661
       H    15.65068    7.55729    0.18258
       O    14.90272    7.76334   -0.38457
      H1    14.55036    6.92597   -0.60360
       H    17.76650   -7.20347   -0.28610
       O    17.05711   -7.83004   -0.42658
      H1    17.16606   -8.52526    0.20179
       H    12.36605    1.79655    3.48111
       O    12.67445    1.03061    3.94174
      H1    11.91651    0.76499    4.46873
       H    14.20821    4.65113   -0.68699
       O    13.65624    5.40680   -0.85540
      H1    13.17928    5.54650   -0.06110
       H    17.49539    7.23012    1.64221
       O    17.68733    7.81595    0.85142
      H1    18.37632    7.36120    0.45249

