144
frame 11 | Written by MDAnalysis XYZWriter (release 2.4.3)
       H     7.24839    9.69842   10.09134
       O     7.73189    8.90690   10.19928
      H1     7.88511    8.50553    9.32597
       H     1.64514    3.26295    4.58680
       O     1.27313    3.81243    5.29762
      H1     2.00968    4.15040    5.80546
       H     6.92337    3.51825    4.52790
       O     6.81396    2.73250    5.03994
      H1     7.60310    2.55584    5.55173
       H     1.90730    3.50870   10.07441
       O     2.43263    3.93043   10.74382
      H1     2.30853    3.39041   11.50325
       H    -0.72322    6.47788    6.33268
       O     0.21212    6.46398    6.59229
      H1     0.55132    5.63438    6.25933
       H     2.04458    4.88230    1.35523
       O     2.38979    4.00704    1.43220
      H1     1.82969    3.49735    0.83920
       H     7.37168   10.00870    4.73066
       O     8.04670    9.46509    4.27920
      H1     7.58142    9.22829    3.41269
       H     2.61480    5.78001    7.66321
       O     2.84109    4.99962    7.12555
      H1     3.71767    4.68047    7.25627
       H     5.64288    3.28256    6.35463
       O     5.04342    3.30340    7.10160
      H1     5.46628    3.93378    7.64791
       H     7.52499    7.79011    4.80271
       O     7.53487    6.95953    5.28951
      H1     8.44171    6.55824    5.21952
       H     0.47367    6.88747    0.93937
       O     1.34081    6.46548    0.96296
      H1     1.84575    7.21532    1.28899
       H    -1.25473    6.32254    2.44059
       O    -1.55418    6.16274    1.53420
      H1    -2.28802    5.57157    1.46513
       H     0.82613    8.46368    6.49541
       O     1.53019    8.95675    7.01214
      H1     1.33016    9.89413    6.81296
       H     6.84221    9.95166    1.25089
       O     7.13334    9.01286    1.49341
      H1     7.97837    8.95824    1.02219
       H     4.36160    8.19386   -0.83030
       O     3.90420    8.51097   -1.60537
      H1     3.25539    7.84589   -1.87723
       H     2.77410   12.21255    6.41007
       O     1.98479   11.99227    6.90412
      H1     2.12523   12.26053    7.82958
       H     0.48789    9.27731   10.29232
       O     0.02967   10.11877   10.29778
      H1    -0.62620   10.05700    9.65267
       H     0.32528   14.48203    5.46804
       O     0.59349   14.27835    6.38604
      H1     1.01275   13.38898    6.44273
       H     7.29271    5.55153    3.89779
       O     6.82623    4.95924    3.29172
      H1     7.47123    4.92410    2.51500
       H     7.38669    7.31430    6.81526
       O     6.93681    7.67184    7.63154
      H1     6.84216    8.64783    7.47254
       H     5.67887    7.95415    1.03064
       O     4.86340    7.45416    0.87807
      H1     4.26759    7.66689    1.60967
       H    -2.61665    5.10314    5.72670
       O    -2.40680    6.00080    5.80487
      H1    -2.88447    6.27362    6.58856
       H     4.43370    2.21282    2.88872
       O     4.64956    2.04967    1.95625
      H1     5.07112    2.87231    1.58695
       H     2.80601    8.24269    3.25288
       O     2.67958    8.53366    2.32888
      H1     2.06628    9.24354    2.33586
       H     6.26623    5.92329    8.25444
       O     6.20981    5.09773    8.73536
      H1     5.56202    5.30136    9.43452
       H    -1.30490    5.66022    8.96257
       O    -1.57481    6.55914    8.92375
      H1    -0.79468    6.99530    8.59221
       H    -3.18954    7.71901    4.29032
       O    -3.11990    8.15855    3.43909
      H1    -4.05099    8.42740    3.39123
       H     1.48902    7.39027   10.26812
       O     1.16468    7.79586   11.04533
      H1     0.71985    7.14941   11.61098
       H     5.38694   10.86844    2.79455
       O     5.22163   10.37058    3.58778
      H1     5.10574    9.45153    3.26655
       H     0.70662   11.01670    3.02752
       O     1.09962   10.99489    2.13835
      H1     0.49687   11.52129    1.57773
       H     3.43535   12.54123    4.16963
       O     3.86666   12.33502    4.99766
      H1     4.29290   11.50107    4.76227
       H    -0.49115    2.70133    7.52275
       O    -0.39705    2.28161    6.65436
      H1     0.36323    2.70567    6.23865
       H     8.03514   10.79423    7.28761
       O     7.21350   10.69984    7.70260
      H1     7.20930   11.12441    8.56722
       H     4.84647   13.66457    5.55380
       O     5.27803   14.47030    5.98260
      H1     4.47794   14.84034    6.41709
       H     2.61254    8.69508   11.44627
       O     3.38059    9.28356   11.46546
      H1     4.05468    8.69392   11.73533
       H     0.99250    2.02441    8.00187
       O     1.59720    1.96525    8.75607
      H1     2.41595    1.87710    8.30621
       H     3.99175    4.39084    1.11682
       O     4.86717    4.75013    0.68691
      H1     4.76977    5.72353    0.64941
       H    -2.43293   10.52416    7.48500
       O    -2.94566   10.34842    6.67505
      H1    -3.77179   10.98429    6.70798
       H     2.93188    7.20981    9.02569
       O     2.08508    6.96911    8.63664
      H1     1.81860    7.67457    8.03123
       H    -0.26790    8.97981    4.04180
       O    -0.20379    9.90435    4.30581
      H1    -1.10797   10.29485    4.27157
       H     0.68762    6.61109    3.29923
       O    -0.06322    7.07842    3.65518
      H1    -0.22284    6.73671    4.52946
       H     6.59656   12.22256    1.44985
       O     5.91760   11.58360    1.30784
      H1     5.68189   11.73317    0.37569
       H     3.61614    5.34651   10.37832
       O     4.25916    6.09186   10.34178
      H1     4.43774    6.27691   11.27113
       H     2.44570    2.11950    2.73249
       O     2.26470    1.71081    3.57680
      H1     2.44460    0.75987    3.50376
       H     4.75478    0.46779    8.62153
       O     4.10156    0.74798    7.92991
      H1     4.38353    1.54297    7.52782
       H     1.79078   13.08881   10.21658
       O     2.27684   12.42045    9.69451
      H1     1.86367   11.53806    9.89356
       H     3.25700    7.86086    5.72504
       O     3.81110    7.77051    4.91079
      H1     4.38708    6.99842    5.03243
       H     4.09221   12.19324    1.69583
       O     3.22704   12.56337    2.07905
      H1     2.52014   11.93658    1.94296

