144
frame 2 | Written by MDAnalysis XYZWriter (release 2.4.3)
       H    17.78129  -11.04160  -16.19797
       O    18.63988  -11.17665  -15.80262
      H1    18.96791  -10.28805  -15.59352
       H     6.95665   -6.08392  -14.42445
       O     7.09238   -6.66754  -13.64538
      H1     7.82234   -6.25762  -13.15949
       H    16.21480   -2.93512  -15.99119
       O    16.05325   -2.21696  -15.35494
      H1    16.72919   -1.50545  -15.43212
       H    11.07290   -7.64209  -16.68718
       O    10.96069   -8.05815  -17.55861
      H1    10.50350   -7.38712  -18.11959
       H    17.39515   -7.60994  -17.77707
       O    17.72816   -7.27341  -18.60873
      H1    18.55767   -6.82767  -18.22099
       H    10.21491   -8.65604  -10.71000
       O     9.43449   -8.16159  -10.51501
      H1     9.31574   -7.61751  -11.30469
       H     9.06793  -15.27113  -17.14049
       O     9.84530  -15.19615  -16.58129
      H1    10.29767  -14.45426  -16.97732
       H    11.80236  -17.22249  -15.22376
       O    12.00344  -16.34381  -15.49440
      H1    11.22507  -15.98156  -15.83416
       H    17.50176  -14.03548  -14.58679
       O    16.54675  -13.90015  -14.51874
      H1    16.19077  -14.81498  -14.56704
       H    10.01060   -1.69578  -19.37994
       O    10.31514   -1.80707  -18.43802
      H1    10.98151   -2.56245  -18.42323
       H    17.26069   -3.36473  -13.79990
       O    17.12846   -4.25995  -13.49036
      H1    16.17585   -4.36922  -13.48221
       H    14.02549   -5.03453  -13.10036
       O    14.23052   -4.65160  -13.95144
      H1    13.42180   -4.70637  -14.38731
       H    11.23845  -12.63945  -17.36362
       O    10.67269  -13.06294  -18.03320
      H1     9.80403  -12.69631  -18.12461
       H    11.26144   -3.92815  -15.27934
       O    11.77408   -4.73354  -15.42385
      H1    11.25179   -5.43153  -15.06174
       H     9.97010  -10.23889  -13.88741
       O    10.10220  -10.24633  -14.89206
      H1     9.23469  -10.38810  -15.28548
       H    13.47939  -11.71217  -10.85480
       O    13.28005  -11.25495  -10.05286
      H1    13.85567  -10.49851   -9.93665
       H    17.11417   -3.55383  -17.94476
       O    16.13177   -3.42613  -17.98993
      H1    15.76972   -4.28969  -17.97115
       H    14.03418  -12.49867  -12.85862
       O    13.66241  -12.89790  -12.07291
      H1    14.37498  -13.31359  -11.59469
       H    12.53457   -8.68874  -17.51207
       O    13.32790   -9.27116  -17.56456
      H1    13.49082   -9.35376  -18.48524
       H    18.05154  -13.51043  -18.33897
       O    18.97940  -13.34910  -18.56092
      H1    19.01055  -13.51525  -19.49991
       H    16.01318  -12.32172  -18.27899
       O    15.96729  -13.26162  -18.50510
      H1    15.56631  -13.80059  -17.79865
       H    16.37780   -9.81389  -17.51515
       O    16.73090  -10.71221  -17.78118
      H1    17.40907  -10.42983  -18.40570
       H    12.91917  -13.88283  -19.83478
       O    13.10668  -14.82781  -19.86706
      H1    13.37896  -15.01830  -18.94696
       H    18.59007   -8.83976  -19.19291
       O    18.65675   -9.75525  -19.56632
      H1    19.25246  -10.22816  -18.89926
       H     5.25591   -8.94835  -17.25647
       O     5.90045   -8.64865  -17.96264
      H1     5.80698   -7.66003  -17.90994
       H     7.62261   -8.93983  -17.46235
       O     8.36989   -9.56167  -17.30162
      H1     9.13336   -9.03644  -17.11190
       H    12.20059   -9.72891  -11.03294
       O    11.57650   -9.14413  -11.51401
      H1    12.17648   -8.55958  -12.04184
       H    15.51698   -8.94298  -14.92968
       O    15.16289   -9.40172  -14.11280
      H1    14.80763  -10.26777  -14.45121
       H    13.53965  -12.10226  -14.96278
       O    14.33608  -12.00624  -14.48785
      H1    15.07379  -12.49107  -14.87624
       H     8.81115   -2.38730  -17.80676
       O     7.97091   -2.78852  -17.37688
      H1     8.32147   -3.53262  -16.86566
       H    13.48802   -7.23169  -12.24122
       O    13.25896   -7.77502  -12.98313
      H1    13.92799   -8.40540  -13.24281
       H     9.21107   -5.09567  -19.57863
       O     9.71937   -5.81224  -19.17246
      H1    10.21303   -6.09916  -19.90464
       H    20.26793  -10.67039  -13.31550
       O    19.64383   -9.90026  -13.13498
      H1    18.82694  -10.27516  -12.77914
       H    11.91459   -7.66234  -14.56009
       O    11.02380   -7.51720  -14.94181
      H1    10.64647   -8.32490  -14.58120
       H     8.50439  -11.32182  -18.21394
       O     8.12279  -12.19426  -18.46572
      H1     7.60616  -12.53815  -17.72154
       H    14.47939   -6.38565  -10.76182
       O    13.73088   -5.95412  -11.17411
      H1    12.88320   -5.96471  -10.66647
       H    14.89319   -8.37656  -17.06747
       O    15.83903   -8.26837  -16.78372
      H1    15.85095   -7.38546  -16.28655
       H    16.63361   -9.74459   -9.45759
       O    16.01616   -9.62226  -10.15779
      H1    16.46443   -9.94417  -10.97021
       H    16.95491   -5.20166  -15.76918
       O    16.16835   -5.72158  -15.79111
      H1    15.54289   -5.34818  -15.15107
       H    11.96348  -15.23660  -11.61007
       O    11.70443  -14.93191  -12.48852
      H1    12.21273  -14.13614  -12.69037
       H    10.22720  -13.69188  -12.07818
       O     9.38958  -13.31759  -11.72602
      H1     9.64375  -12.67575  -11.02192
       H    17.18070  -13.03793  -11.08066
       O    16.37430  -13.10868  -11.65413
      H1    16.76499  -13.44485  -12.46580
       H    11.32860  -11.03401  -15.79144
       O    12.16416  -11.46358  -16.22379
      H1    12.52310  -10.74624  -16.71156
       H    10.93842   -4.51188  -18.07760
       O    11.86500   -4.22578  -18.02107
      H1    11.96443   -4.50694  -17.10580
       H     9.07289   -9.98371  -11.64206
       O     8.70642  -10.54798  -12.40356
      H1     8.59215  -11.44896  -12.07507
       H     9.72326   -5.00652  -12.30339
       O     9.09197   -5.77912  -12.02252
      H1     8.63736   -5.27852  -11.29716
       H    14.81839  -16.07405  -16.94456
       O    14.75219  -15.75089  -17.81863
      H1    14.94987  -16.49633  -18.43695
       H    16.82172  -11.45078  -12.33767
       O    16.97119  -10.53548  -12.51628
      H1    16.50881  -10.25701  -13.27360

