144
frame 0 | Written by MDAnalysis XYZWriter (release 2.4.3)
       H     6.55637   -7.48341  -13.96508
       O     5.87335   -8.14314  -13.80079
      H1     6.41238   -8.72397  -13.29719
       H     6.49076  -16.40067  -11.07166
       O     5.57272  -16.58302  -10.99427
      H1     5.12184  -16.21801  -11.76932
       H     7.84894   -5.65831  -14.01211
       O     8.54746   -6.09458  -13.48292
      H1     8.33333   -5.75257  -12.61096
       H     6.34560   -4.96615  -16.35411
       O     6.77742   -4.77741  -15.49016
      H1     6.13817   -4.40536  -14.85856
       H     9.73192   -9.49096  -10.76136
       O     9.11241   -8.81282  -10.85258
      H1     9.68093   -8.05459  -10.96281
       H     7.73431   -8.60206   -9.70137
       O     7.05881   -8.55430   -9.02330
      H1     6.37039   -7.96739   -9.40236
       H     9.23847  -16.04309  -17.63949
       O    10.00537  -15.47277  -17.53874
      H1     9.68565  -14.62146  -17.89993
       H    -0.05430  -10.13620  -11.38171
       O     0.50589   -9.86368  -12.13776
      H1     1.24152  -10.43021  -11.97291
       H     1.50521   -6.26215  -12.55962
       O     1.31219   -5.51933  -13.22156
      H1     0.88535   -5.87621  -14.03287
       H     5.32863  -16.24416  -14.89050
       O     6.13766  -15.73747  -14.66907
      H1     6.68108  -15.69081  -15.45547
       H     6.12169  -13.00086  -11.08241
       O     6.16217  -13.21154  -12.01816
      H1     7.07518  -13.39686  -12.24620
       H     3.02845  -17.27383  -15.38445
       O     3.93027  -17.20860  -15.62093
      H1     4.28475  -17.95619  -15.14248
       H    -1.39146  -11.12561  -17.95573
       O    -0.77676  -11.82956  -17.69414
      H1    -0.92996  -12.42997  -18.48413
       H     5.74494  -12.27856  -16.80874
       O     6.04649  -13.15230  -16.90960
      H1     6.07993  -13.58609  -16.05432
       H     1.80237   -8.31147  -11.90810
       O     2.35532   -7.53832  -11.58656
      H1     3.31288   -7.71722  -11.75886
       H    10.69586  -12.47802  -17.89930
       O    10.09038  -13.00248  -18.54404
      H1     9.23520  -12.60467  -18.32374
       H     5.13217   -6.16423  -10.25936
       O     4.99770   -7.08404  -10.15170
      H1     4.23508   -7.29027   -9.61665
       H     5.57283   -5.79211  -18.57227
       O     6.39857   -5.77481  -18.06916
      H1     7.05590   -5.29781  -18.56623
       H     8.72953  -11.28885  -14.07678
       O     9.17966  -11.30573  -14.98991
      H1     8.90348  -10.48265  -15.41608
       H     4.71188  -13.71760   -8.69506
       O     5.06034  -13.10630   -9.41982
      H1     5.31789  -12.23500   -9.06168
       H     0.50042  -11.02421  -18.38263
       O     1.21653  -10.58418  -18.86710
      H1     1.87781  -10.37822  -18.17619
       H    -0.12548  -15.48809  -12.87237
       O     0.60921  -15.71170  -13.44587
      H1     0.32912  -16.28896  -14.13793
       H     1.46227  -14.78492  -15.85020
       O     1.46329  -15.33338  -16.66430
      H1     2.07906  -14.86561  -17.22819
       H     2.72398  -18.12531  -11.09366
       O     2.31583  -17.33280  -10.78801
      H1     2.76556  -16.59623  -11.23446
       H     6.55876  -14.18608   -8.99247
       O     7.26456  -14.50269   -8.38229
      H1     7.74572  -15.15776   -8.86177
       H     3.40652  -10.77487   -7.89914
       O     2.68854  -10.49062   -8.50328
      H1     1.82379  -10.62060   -8.06360
       H     1.27690  -14.30257  -14.10801
       O     1.83162  -13.61539  -14.50422
      H1     1.29130  -12.83156  -14.63471
       H    -0.62043   -9.62029  -15.14716
       O    -0.92671   -9.05548  -14.42883
      H1    -0.29792   -9.41342  -13.77823
       H     3.61295  -14.96162  -13.55350
       O     3.47437  -15.48017  -12.73744
      H1     2.55719  -15.77868  -12.82578
       H     4.95326   -8.89556  -17.64937
       O     5.86314   -8.57314  -17.73840
      H1     5.78341   -7.65111  -17.76304
       H     3.43274  -13.60103  -18.87475
       O     3.71222  -14.37702  -18.32461
      H1     4.27847  -13.90421  -17.66329
       H     2.96933  -11.88632  -11.86707
       O     2.19310  -11.99126  -11.27530
      H1     2.55261  -11.89449  -10.39691
       H     5.59530  -10.07687  -14.93928
       O     5.30545  -10.75271  -15.56119
      H1     4.90144  -11.33991  -14.83008
       H     7.53236   -9.18177  -17.19311
       O     8.36006   -9.52615  -16.87651
      H1     8.93024   -8.75685  -16.91004
       H     5.81415  -11.02313   -7.67579
       O     6.26086  -11.00560   -8.49798
      H1     6.36526  -10.08877   -8.73032
       H     9.94423  -14.03966  -14.36540
       O    10.15090  -14.87825  -14.72269
      H1    10.12985  -14.73225  -15.72614
       H     2.55640   -8.78901  -16.82357
       O     3.17018   -9.52081  -17.06983
      H1     3.57379   -9.69623  -16.27632
       H     2.38136   -6.93145  -15.82111
       O     1.66295   -7.50163  -16.04595
      H1     1.15902   -6.97869  -16.68007
       H     8.13727  -10.93228  -17.83520
       O     7.81427  -11.75671  -18.26293
      H1     7.22378  -12.20122  -17.63935
       H     0.88747  -13.11560  -10.67565
       O     0.23319  -13.25776  -10.00254
      H1     0.69026  -13.34756   -9.11625
       H     9.39436  -13.95931  -12.08673
       O     9.23102  -13.01973  -12.30052
      H1    10.05318  -12.55873  -12.10796
       H    10.67090  -11.78017  -15.80485
       O    11.42491  -11.94739  -16.38982
      H1    11.84446  -11.10344  -16.44206
       H     8.16223   -9.50249  -12.25507
       O     7.61332  -10.17477  -12.80247
      H1     7.36485  -10.81572  -12.12328
       H     3.76520   -5.69565  -14.66054
       O     4.00157   -6.44121  -15.18845
      H1     4.46379   -6.96584  -14.44971
       H     7.54947  -16.70146  -18.35096
       O     6.93706  -16.22346  -17.78855
      H1     6.30798  -15.89877  -18.44233
       H    -0.66544  -11.67340  -14.52701
       O     0.05173  -11.60420  -15.17719
      H1    -0.17588  -12.08506  -16.00199
       H     3.17647  -12.79635  -13.86593
       O     3.92291  -12.23096  -13.53976
      H1     4.59143  -12.79409  -13.12007
       H     7.70913  -15.28788  -12.73652
       O     8.22580  -15.50930  -11.98510
      H1     8.55529  -16.39669  -12.18059

