144
frame 0 | Written by MDAnalysis XYZWriter (release 2.4.3)
       H    13.26905   17.00140   13.67948
       O    13.15474   16.63694   12.79705
      H1    12.19657   16.65355   12.76524
       H    13.36618   19.75498   14.91940
       O    13.18791   18.78884   14.92688
      H1    14.06251   18.36196   15.03841
       H    11.95024   13.12714   16.09568
       O    11.85314   12.55766   16.91466
      H1    11.37601   13.10495   17.50987
       H    18.37620   18.45355   12.74575
       O    19.08074   18.33294   13.40482
      H1    19.47147   19.23886   13.50094
       H    14.06497   14.40263   19.35401
       O    13.35219   14.29807   19.96603
      H1    13.11157   13.34662   19.91307
       H    18.25002   10.37915   12.22053
       O    18.53583   10.34805   13.15843
      H1    18.65094    9.38608   13.33960
       H    10.45060   11.56607   16.63336
       O     9.75873   10.91024   16.90347
      H1     9.68974   10.32775   16.15768
       H    19.99186   17.04318    9.75773
       O    19.15506   16.62012    9.43302
      H1    19.15054   15.73027    9.78779
       H    19.78053   16.20504   17.81744
       O    19.75004   15.59969   17.10689
      H1    19.10598   14.88688   17.24598
       H    14.06631   19.33598   18.17632
       O    13.19729   18.98448   18.47541
      H1    12.85159   18.31163   17.79056
       H    12.90398   15.63123    7.15531
       O    12.93807   14.73045    7.54261
      H1    13.71150   14.76483    8.18959
       H    14.75443    9.69318   11.30747
       O    14.42334    9.90332   12.15099
      H1    13.47453    9.64275   12.03354
       H    18.45974   18.83875   19.20611
       O    17.98066   17.95190   19.18462
      H1    17.07529   18.24519   19.28244
       H    15.04818   13.85690    9.60159
       O    15.01920   14.78313    9.31847
      H1    15.65799   15.34594    9.84779
       H    19.02088    8.04988   17.36753
       O    18.27479    7.62787   16.99063
      H1    17.55054    8.30202   16.82674
       H    11.27050   15.24996   15.56322
       O    11.31705   14.50934   14.98938
      H1    11.79321   14.68534   14.15134
       H    15.21002   16.30481   15.63301
       O    15.24946   17.20768   15.35753
      H1    16.12473   17.45773   15.65000
       H    11.71741   14.76363   18.68795
       O    10.80523   14.47882   18.70206
      H1    10.30994   15.21898   18.29993
       H     9.98163   13.86970   14.28244
       O     9.22941   13.56408   13.70479
      H1     8.42740   13.60029   14.22460
       H    16.17369   19.36894   11.99298
       O    17.03454   19.00937   11.75241
      H1    16.89328   18.04108   11.52716
       H    10.24376   10.44904   18.52938
       O    10.38540    9.91773   19.33197
      H1    11.11485   10.37631   19.81559
       H    18.36758   17.61160   14.95836
       O    17.81376   17.77813   15.75697
      H1    18.14438   17.18259   16.41400
       H    16.98320   11.68105    8.29282
       O    16.90187   11.91310    7.36137
      H1    17.36845   11.26898    6.80645
       H    18.02046   14.46184   12.88124
       O    17.44813   14.03802   12.19299
      H1    17.17180   13.20683   12.61830
       H    16.90140   11.09747   13.83528
       O    16.03622   11.29506   14.31491
      H1    15.39796   10.73442   13.82488
       H    13.96599   17.76444   11.25527
       O    14.06754   17.93383   10.31674
      H1    14.64242   17.23704   10.02306
       H    18.50774    6.85544   13.51398
       O    18.63742    7.77990   13.63902
      H1    19.03343    7.94064   14.49337
       H    17.26759    5.78880   19.47218
       O    16.68701    6.21174   18.83997
      H1    17.30899    6.69258   18.31517
       H    17.56682   13.21870   16.86395
       O    17.56499   14.14020   16.44870
      H1    16.98870   14.65645   16.98516
       H    13.21248   14.88758   12.72622
       O    13.11836   13.93267   12.87918
      H1    13.30525   13.54482   11.99940
       H    16.87198   10.67698   17.67419
       O    16.63144    9.79704   17.28850
      H1    15.94049   10.05650   16.67070
       H     8.41634   17.35564   17.74388
       O     8.62428   16.52235   18.15452
      H1     7.80613   15.95652   18.21565
       H    17.77002   12.40011   19.22592
       O    17.89729   11.82010   18.47022
      H1    18.39504   11.05422   18.76452
       H    18.83896   10.36795   10.26620
       O    17.88742   10.40677   10.58988
      H1    17.47825    9.54630   10.28329
       H    16.13661   15.56027    7.77449
       O    16.63265   15.90687    7.08359
      H1    16.68101   16.87363    7.15674
       H    11.61574   15.10506    9.26049
       O    11.50032   15.75235   10.00868
      H1    12.32493   16.25855    9.84400
       H    15.81515   13.90600   15.05993
       O    14.98191   14.32266   15.27910
      H1    14.36483   13.96253   14.68569
       H    18.96699    4.06879   15.69031
       O    19.77006    4.62375   15.98317
      H1    19.49029    5.50032   16.31640
       H    15.49192    8.16680   12.58880
       O    15.63606    7.28570   13.00485
      H1    16.35581    6.93047   12.46253
       H    15.17721   14.50922   17.32635
       O    15.30579   14.87964   18.21234
      H1    15.10632   15.81271   18.33016
       H    13.53083   12.25110    9.92698
       O    14.38048   12.27768   10.45126
      H1    14.42765   11.51824   11.05374
       H    11.79134   18.17184   16.01625
       O    11.38079   17.53423   16.61525
      H1    10.44044   17.74439   16.76966
       H    17.56436   16.54008   10.33401
       O    16.80733   16.44262   10.86196
      H1    16.99349   15.69752   11.47690
       H    17.40322   13.98778    8.70739
       O    18.06333   14.04548    9.40664
      H1    17.55022   13.95583   10.24265
       H    14.57662    7.11445   14.91488
       O    13.97513    6.76799   15.55564
      H1    13.80302    7.60316   16.04343
       H    15.61769    9.91615   18.67153
       O    15.07083   10.05966   19.42513
      H1    15.53570   10.33828   20.23906
       H    12.52112    9.48133   17.05086
       O    13.11922    8.81162   17.32872
      H1    13.59140    9.13015   18.09473
       H    10.74006   18.10192   12.36414
       O    10.61487   17.74555   13.26394
      H1    10.59635   18.53456   13.85469

