144
frame 8 | Written by MDAnalysis XYZWriter (release 2.4.3)
       H    -7.05642    9.55148  -17.74268
       O    -7.83030   10.05711  -17.51035
      H1    -7.52777   10.98286  -17.62916
       H   -16.40162   12.22956  -19.10828
       O   -16.47377   11.30018  -19.35115
      H1   -15.55122   10.97345  -19.25952
       H   -10.24003    8.32465  -11.27463
       O    -9.79051    8.51840  -12.14583
      H1    -9.92719    7.71624  -12.69304
       H    -9.72574    7.45212  -16.31321
       O    -9.27805    8.01682  -15.68598
      H1    -8.89497    8.73469  -16.20334
       H   -14.44859   12.55493  -12.18027
       O   -14.42258   11.98576  -11.35987
      H1   -15.26061   11.58385  -11.33013
       H   -19.64316   15.45095  -17.48815
       O   -19.26998   14.70212  -18.03480
      H1   -19.25041   13.85811  -17.51666
       H   -16.82027    5.73100  -17.03382
       O   -16.74364    5.22286  -16.24127
      H1   -16.02834    5.66722  -15.78642
       H    -8.93616    5.57959  -20.16559
       O    -9.70651    5.45972  -19.60004
      H1    -9.98839    6.27190  -19.14630
       H   -17.67556    2.23361  -16.51594
       O   -18.04245    1.57941  -17.18710
      H1   -17.45638    1.27169  -17.89249
       H   -11.37093    6.80790  -17.09492
       O   -10.68344    7.10419  -17.71317
      H1   -10.88403    8.08284  -17.64881
       H   -14.39064    8.93689  -10.66260
       O   -13.57500    9.09759  -11.15299
      H1   -13.58768   10.03973  -11.36697
       H   -16.79621   15.15004  -13.84631
       O   -17.40211   14.89214  -14.55506
      H1   -17.81459   15.73959  -14.71640
       H   -11.01369   15.31864  -13.95961
       O   -11.01738   14.45896  -13.53325
      H1   -10.50715   13.83654  -14.10515
       H   -10.52557    5.56613  -13.00964
       O   -10.01283    6.19349  -13.56490
      H1    -9.11755    5.86363  -13.46091
       H   -13.69347    9.93452  -19.75174
       O   -13.87829   10.03821  -18.82159
      H1   -14.17204    9.17909  -18.51528
       H   -18.09751   10.82960  -18.53752
       O   -18.73386   10.51598  -17.84055
      H1   -18.17400    9.95909  -17.24804
       H   -11.55903    4.95670  -11.04073
       O   -11.37469    4.55127  -11.89622
      H1   -12.18612    4.24022  -12.28626
       H   -18.62116    9.09588  -13.31842
       O   -18.46337    9.90524  -12.85458
      H1   -19.28097   10.31178  -12.57148
       H   -16.40119    6.18055  -13.43556
       O   -15.59083    5.73435  -13.17173
      H1   -14.89022    6.37508  -13.24254
       H   -13.36282   14.17176  -13.64447
       O   -14.25071   13.95899  -13.32469
      H1   -14.60871   13.47873  -14.07568
       H   -11.03790   10.57422  -14.10304
       O   -10.93579   10.15519  -14.92119
      H1   -10.47551    9.37480  -14.63326
       H   -12.58955   16.55418  -17.59977
       O   -12.19470   15.83970  -17.05869
      H1   -12.65329   15.01663  -17.17770
       H   -12.77033   13.20021  -17.30405
       O   -13.61523   13.60341  -17.48390
      H1   -13.86848   13.41385  -18.45003
       H   -17.90271    7.80503  -15.50586
       O   -17.78868    8.61153  -16.05832
      H1   -16.89960    8.96287  -15.65459
       H    -9.84418    4.15123  -18.00548
       O    -9.76688    3.39791  -17.37152
      H1   -10.67811    3.16636  -17.14803
       H   -10.62322   12.44110  -16.82908
       O   -11.18993   12.33939  -17.65436
      H1   -11.24101   11.35837  -17.64589
       H    -7.87704   12.92994  -19.49532
       O    -7.12867   12.57334  -18.99825
      H1    -6.94645   13.31201  -18.32927
       H   -10.68569   16.13009  -18.25164
       O    -9.96825   16.39940  -18.86913
      H1   -10.24519   17.20582  -19.28713
       H   -16.48430    6.24156  -11.26964
       O   -17.08728    6.68453  -10.66863
      H1   -17.76196    5.96388  -10.48033
       H   -15.77227   10.89485  -14.50524
       O   -16.02420   10.01952  -14.41224
      H1   -16.87344   10.05749  -13.99156
       H   -14.25213    4.24983  -13.14741
       O   -13.60502    3.55345  -13.25841
      H1   -13.96788    2.78499  -12.74483
       H   -17.52545    7.63267  -17.82740
       O   -17.23982    7.01495  -18.47533
      H1   -16.25819    7.27678  -18.63877
       H   -18.80807   12.70983  -15.40861
       O   -18.25583   12.68953  -16.22737
      H1   -18.48739   11.96176  -16.84249
       H    -7.57011    9.12485  -13.29965
       O    -7.27548    8.45471  -13.97681
      H1    -8.00899    8.23383  -14.61121
       H   -13.65153    4.68193  -17.64059
       O   -13.85185    5.36306  -17.02000
      H1   -13.05960    5.50142  -16.49719
       H   -17.02478    2.34390  -14.29570
       O   -16.59399    2.54158  -15.16830
      H1   -16.64186    3.49746  -15.21096
       H   -16.68937   14.53075  -19.90345
       O   -16.92684   14.13435  -19.08500
      H1   -17.68149   14.65409  -18.71613
       H   -12.80965    2.57387  -16.22759
       O   -12.06825    2.15075  -16.71241
      H1   -11.93532    1.24119  -16.34612
       H   -14.91666   12.75568  -16.25262
       O   -15.45356   12.60767  -15.43080
      H1   -16.40751   12.74541  -15.71315
       H   -12.42787    9.92253  -17.77146
       O   -11.49213    9.74936  -17.47094
      H1   -11.35043    9.91812  -16.54101
       H   -14.10510    7.01456  -19.75492
       O   -14.55372    7.17633  -18.92248
      H1   -14.08806    6.61119  -18.26820
       H   -17.40914   10.31527   -9.97090
       O   -16.81848   10.52406  -10.74738
      H1   -17.43549   10.15664  -11.45341
       H   -12.52202    6.78320  -14.79454
       O   -12.00884    6.24033  -15.38998
      H1   -11.15617    6.04680  -14.91637
       H   -13.77618    8.03603  -12.75318
       O   -13.79855    7.67591  -13.65748
      H1   -14.46136    8.29757  -13.99817
       H    -9.06010   13.62065  -15.77794
       O    -9.65261   12.95893  -15.46525
      H1    -9.31678   12.35958  -14.71762
       H   -10.24093   12.39243  -19.10542
       O    -9.64845   12.35516  -19.89040
      H1    -9.35911   11.41277  -20.02066
       H   -19.20192    7.08265  -13.35663
       O   -18.21998    7.17741  -13.39484
      H1   -18.03194    7.43040  -12.45209
       H   -14.86168   15.25915  -16.99252
       O   -15.55563   15.79935  -16.71809
      H1   -16.24298   15.16335  -16.47429

