144
frame 11 | Written by MDAnalysis XYZWriter (release 2.4.3)
       H    -7.66179    1.58704   11.73979
       O    -7.29505    0.80550   12.25876
      H1    -6.74335    1.33889   12.87055
       H   -16.18991    4.40187    7.67781
       O   -15.45367    4.32481    7.01507
      H1   -14.62377    4.10905    7.43245
       H   -16.65623    0.09704    6.23798
       O   -16.36182   -0.55271    5.59496
      H1   -15.90415   -0.02092    4.89175
       H   -10.74907   -0.38595   12.47591
       O   -11.07146   -0.86166   13.24851
      H1   -10.77282   -0.56650   14.09080
       H   -16.19567    2.37483    7.24644
       O   -16.52674    1.48771    7.31447
      H1   -17.48349    1.55739    7.17422
       H   -13.28258   -2.96467   16.16914
       O   -12.45397   -3.05565   15.68290
      H1   -12.59004   -3.36583   14.77938
       H   -13.78709    1.79802   10.81060
       O   -13.12751    1.94235   10.16610
      H1   -13.07406    1.11190    9.66450
       H   -11.12788    1.68534   14.43766
       O   -10.96138    2.55620   14.16518
      H1   -11.32538    3.10272   14.85946
       H   -11.82734   -6.86266   10.21085
       O   -12.74764   -7.16644    9.95383
      H1   -13.17548   -7.02827   10.83051
       H   -15.60154   -3.08308   13.22699
       O   -15.42950   -2.81113   12.30412
      H1   -16.25527   -2.34464   12.02573
       H   -11.18558    3.57874    7.19693
       O   -10.41592    3.26640    6.67492
      H1    -9.63876    3.55718    7.26124
       H   -15.51875    2.48662   13.44602
       O   -16.02277    3.01241   14.07775
      H1   -15.71452    3.94824   13.93054
       H   -11.81266   -5.22712    3.09960
       O   -12.19679   -5.19543    4.03268
      H1   -11.43695   -5.60327    4.56004
       H    -8.69770   -3.95491    6.82914
       O    -8.65810   -3.07005    6.43135
      H1    -8.14626   -3.28163    5.64317
       H   -15.31771   -6.35270    9.97649
       O   -15.25020   -5.86247    9.15754
      H1   -14.30781   -5.63505    9.03167
       H   -14.40423    0.81065   12.64377
       O   -14.64624    1.62489   12.18904
      H1   -15.43307    1.36119   11.70589
       H   -12.15398   -0.68209    4.23787
       O   -11.22808   -0.95607    4.00596
      H1   -10.75466   -0.81541    4.83605
       H    -9.28844    0.65085   10.60396
       O   -10.20796    0.41572   10.84949
      H1   -10.55961    1.27975   11.00596
       H   -16.64713    1.32642    9.21953
       O   -16.61026    1.11198   10.14724
      H1   -16.05280    0.25924   10.05013
       H   -13.19999   -2.15035    6.12190
       O   -13.57045   -1.19342    6.17211
      H1   -14.54066   -1.18271    6.06529
       H    -8.43312   -3.63653   10.31904
       O    -7.50737   -3.87321   10.48547
      H1    -7.26108   -4.57820    9.81415
       H   -10.53127   -3.14898    6.28726
       O   -11.49654   -3.26037    6.07708
      H1   -11.54027   -3.72704    5.18494
       H    -7.64668    3.82661   11.17926
       O    -8.31089    3.27363   10.77247
      H1    -9.08740    3.52773   11.26054
       H   -12.69416   -3.57551   11.64726
       O   -12.90113   -3.08125   10.81308
      H1   -13.86181   -2.83874   10.74112
       H   -14.26667   -1.56072   12.68193
       O   -13.82083   -0.75745   13.06230
      H1   -12.91298   -1.01854   13.10356
       H    -7.21257    0.39832    5.78655
       O    -6.48127    0.75738    5.28267
      H1    -6.17020    1.56748    5.67584
       H    -7.98810    3.53728    8.97718
       O    -8.04147    3.75080    8.04048
      H1    -7.15707    3.85158    7.61655
       H    -9.63826   -7.34998    9.87880
       O   -10.08316   -6.86738   10.63232
      H1    -9.46364   -6.17619   10.73568
       H   -13.69703   -4.11069    4.63135
       O   -14.42342   -3.46791    4.54066
      H1   -15.15330   -3.76902    5.11676
       H   -10.83961    1.36032    6.41408
       O   -10.60933    0.47366    6.47407
      H1   -11.18976    0.08830    7.15806
       H   -12.26589   -1.30676    9.42918
       O   -12.71753   -0.55308    8.93120
      H1   -12.89725   -0.80148    8.03247
       H   -14.28705   -0.98739    9.48255
       O   -15.08501   -1.17148    9.95137
      H1   -15.56016   -1.84267    9.46415
       H   -11.92570    2.65577   11.12303
       O   -11.16103    2.90412   11.64168
      H1   -11.12928    2.61074   12.56456
       H    -5.66354   -2.73584    9.25128
       O    -5.05685   -2.11034    8.91635
      H1    -5.36151   -1.25279    9.15976
       H    -9.92813   -7.07681    5.83791
       O   -10.78097   -6.61152    5.88044
      H1   -11.52454   -7.18942    5.81785
       H   -12.61890   -5.09284   13.78900
       O   -12.05197   -4.37786   13.41890
      H1   -11.15040   -4.64710   13.68456
       H   -10.66795   -5.51360    7.41989
       O   -10.06055   -4.98383    7.99625
      H1   -10.76947   -4.36306    8.22666
       H   -18.73871   -0.40493   12.67023
       O   -18.13665   -1.11812   12.65953
      H1   -18.04447   -1.43010   13.59885
       H    -9.00392   -0.31730    7.65158
       O    -8.12018   -0.70769    7.80268
      H1    -8.25588   -1.60140    7.36633
       H    -8.35260   -3.55442   13.12332
       O    -9.04719   -3.13077   13.68200
      H1    -9.66801   -2.62371   13.12959
       H   -10.84918   -2.90563   10.73619
       O    -9.96301   -2.54532   10.55216
      H1    -9.96173   -1.66797   10.82254
       H    -6.84869   -0.02686    9.15424
       O    -6.19288    0.34050    9.71254
      H1    -6.49793    0.29415   10.63204
       H   -16.33739   -4.18565    7.14373
       O   -16.29898   -4.72554    6.33247
      H1   -17.14533   -5.15025    6.25633
       H   -15.28986    0.20402   15.74104
       O   -15.39496   -0.62412   15.27209
      H1   -14.66559   -0.70970   14.56150
       H   -17.47415   -3.42141    8.95088
       O   -16.52202   -3.39875    8.72639
      H1   -16.15975   -4.23466    9.07493
       H   -14.58111   -6.23672   13.43172
       O   -14.11369   -5.77545   14.14626
      H1   -14.60938   -4.98818   14.40598
       H   -12.50356    4.47695    8.48484
       O   -12.78743    3.67451    8.00091
      H1   -12.89867    3.01077    8.68988
       H   -12.96559   -3.70996    9.01940
       O   -12.95235   -4.34006    8.26481
      H1   -12.58545   -3.88940    7.49466

