144
frame 6 | Written by MDAnalysis XYZWriter (release 2.4.3)
       H   -18.21185    0.54103   -8.72243
       O   -17.93390    1.39755   -8.32808
      H1   -17.42460    1.20603   -7.54224
       H   -12.84287    2.40057   -6.70444
       O   -12.33891    1.63992   -6.25647
      H1   -11.61564    1.53441   -6.90356
       H   -17.85259   -2.88230  -12.18687
       O   -17.69136   -2.20719  -12.88908
      H1   -17.35652   -2.62533  -13.68529
       H   -18.32573    0.20847  -14.70292
       O   -18.16660    0.85232  -14.00659
      H1   -17.35699    1.40323  -14.26385
       H   -16.48179    0.31724  -12.60094
       O   -15.59411    0.70616  -12.64942
      H1   -15.30668    0.46677  -13.51945
       H   -16.95440    4.37379   -9.67725
       O   -16.64688    3.46066   -9.74638
      H1   -17.11239    2.89906   -9.07157
       H   -13.72768   -0.01474  -15.94831
       O   -14.63603    0.06781  -16.22361
      H1   -14.86956    0.90538  -15.77314
       H   -15.99328   -2.52513  -12.54101
       O   -15.10946   -2.85036  -12.26860
      H1   -15.15726   -3.85198  -12.16827
       H   -16.46216    6.31472  -17.50174
       O   -16.38394    5.35723  -17.66275
      H1   -15.37237    5.26594  -17.70868
       H   -18.79338   -0.68027  -16.56345
       O   -19.19627   -1.37185  -16.05543
      H1   -18.67895   -2.18282  -16.25722
       H   -19.35518   -3.95731  -11.03516
       O   -18.61960   -3.52876  -10.61320
      H1   -18.19063   -4.22198  -10.04660
       H   -14.70571   -0.91952   -9.34681
       O   -14.78583   -1.84975   -9.64334
      H1   -14.81084   -1.87926  -10.62841
       H   -17.92945    1.75168  -16.88967
       O   -18.28818    0.87412  -17.13901
      H1   -18.13471    0.78650  -18.11666
       H   -13.08751    7.28746  -16.79749
       O   -13.14321    7.63658  -17.70728
      H1   -13.39611    8.55680  -17.63784
       H   -14.83783    1.89202  -11.39516
       O   -14.37675    2.36188  -10.64057
      H1   -15.02288    2.81483  -10.05589
       H   -15.45996    8.21358   -9.45120
       O   -15.21443    8.46543  -10.34531
      H1   -14.87140    9.37673  -10.27322
       H   -12.56295    1.40901  -10.67244
       O   -11.98666    0.71292  -10.24499
      H1   -11.35933    0.47424  -10.94609
       H   -13.28787   -2.01353  -13.08426
       O   -12.39278   -2.17145  -13.40936
      H1   -12.09901   -1.42783  -13.94482
       H   -12.26105    5.62486  -10.37185
       O   -12.03215    5.40126  -11.29175
      H1   -12.89982    5.28301  -11.73962
       H   -19.55426   -2.43864   -8.15737
       O   -18.76539   -1.86625   -8.32532
      H1   -18.37830   -2.34369   -9.05142
       H   -17.69138   11.49643  -12.93919
       O   -17.98739   10.63107  -13.22355
      H1   -17.92064   10.12295  -12.36499
       H   -16.80227    6.73721  -13.45782
       O   -16.10226    6.39456  -12.87477
      H1   -15.36905    7.02058  -12.85218
       H   -15.22503    6.83860   -7.20990
       O   -15.90016    7.34182   -7.71883
      H1   -16.33120    6.75489   -8.33839
       H   -13.16783    6.64407   -5.70893
       O   -13.64798    6.40029   -6.50403
      H1   -13.23770    6.71108   -7.33923
       H   -16.20383   -0.54375  -19.14690
       O   -15.26842   -0.62786  -18.96364
      H1   -15.32015   -0.53578  -18.02644
       H   -11.05971    3.59624  -11.73541
       O   -10.29889    3.09538  -12.08002
      H1    -9.52077    3.69635  -12.09221
       H   -14.49508    3.53615   -6.25161
       O   -13.95209    3.66959   -7.05380
      H1   -13.80780    4.63990   -7.11150
       H   -12.31705    7.84996   -9.44476
       O   -12.40134    7.08185   -8.86701
      H1   -11.51592    6.79890   -8.64749
       H   -18.53765    7.93058   -6.68651
       O   -17.94554    8.12711   -5.96094
      H1   -17.06406    8.04717   -6.34677
       H   -17.69514    7.87160  -16.04789
       O   -17.10921    8.25144  -16.70191
      H1   -16.51517    8.84184  -16.20804
       H   -15.52264    2.09860   -5.79554
       O   -15.90514    1.19785   -5.93194
      H1   -15.51711    0.81386   -6.71596
       H   -17.41461    3.58351  -11.29449
       O   -17.78700    3.73505  -12.22913
      H1   -18.63054    3.18458  -12.32635
       H   -20.13691    5.88895  -13.73553
       O   -19.55706    5.80894  -12.97958
      H1   -18.93470    5.10955  -13.05431
       H   -14.38699    1.18221   -9.07314
       O   -14.42834    0.58089   -8.34476
      H1   -13.48183    0.46305   -8.07925
       H   -17.06516    6.35957  -10.98480
       O   -17.24050    6.13876  -10.08311
      H1   -18.16511    5.90495   -9.90585
       H   -15.59094   10.68654  -15.58408
       O   -15.84940    9.92925  -15.09514
      H1   -16.66016   10.12548  -14.60159
       H   -15.18247    4.78020  -13.07435
       O   -14.37757    4.22173  -13.13370
      H1   -14.59979    3.57420  -12.47752
       H   -19.04655    6.65054  -18.56847
       O   -19.03560    6.63617  -19.53934
      H1   -19.14326    7.64402  -19.80361
       H    -9.50021    2.22853  -14.85575
       O   -10.46117    2.41382  -14.86119
      H1   -10.50330    2.95549  -14.04486
       H   -13.56821    4.26232  -18.81496
       O   -13.84914    4.69117  -17.99881
      H1   -13.45489    4.22352  -17.21426
       H   -17.82887    3.87271  -15.63524
       O   -17.77798    3.51968  -16.52617
      H1   -17.31399    4.31948  -17.01231
       H   -17.82659    6.42845   -5.10873
       O   -17.56602    5.60344   -4.60806
      H1   -18.25932    4.97648   -4.79935
       H   -18.00109    9.58921  -10.08267
       O   -18.63490    9.28433  -10.85156
      H1   -18.63726    8.31713  -10.74781
       H   -13.09746    6.99429  -14.31010
       O   -12.63539    6.66452  -15.05764
      H1   -11.76110    6.62364  -14.66223
       H   -15.50992    3.10397  -15.92275
       O   -15.47085    2.45450  -15.20091
      H1   -14.97958    2.97913  -14.52398
       H   -14.29182    8.61095  -12.10123
       O   -14.16559    8.39480  -13.06754
      H1   -14.67267    9.01347  -13.60467
       H   -19.46050    8.43679   -8.75587
       O   -19.30676    7.48896   -8.61478
      H1   -19.58308    6.98693   -9.43504
       H   -18.78621    7.26269  -13.51959
       O   -18.18699    7.85778  -14.01519
      H1   -18.59959    8.72948  -13.83931

