144
frame 6 | Written by MDAnalysis XYZWriter (release 2.4.3)
       H    14.41690  -12.84245    3.62497
       O    13.66480  -12.74369    3.06553
      H1    13.00526  -13.43856    3.30069
       H     9.02718  -11.99486    9.55238
       O     9.22239  -12.86218    9.13777
      H1     8.61725  -13.46708    9.64427
       H    11.66351  -16.66872   12.13751
       O    12.15149  -17.03531   11.40626
      H1    11.56665  -17.64556   10.96138
       H     5.08852   -9.99971    9.49223
       O     5.37952  -10.74256   10.15098
      H1     6.30227  -10.49137   10.29066
       H     9.02064  -13.79496   13.55650
       O     9.32653  -14.57076   14.00757
      H1     8.90539  -14.58832   14.89668
       H    11.37096  -14.13836    2.52609
       O    11.61614  -14.37131    3.44452
      H1    11.48438  -15.30452    3.49113
       H     8.91097   -9.60281    7.03796
       O     8.27168   -9.54006    6.27636
      H1     8.74006   -8.99144    5.65304
       H     8.00032  -11.17584   11.55511
       O     8.04436  -10.76130   10.66197
      H1     8.56398  -10.00997   10.87959
       H     6.62413   -7.03084    6.75193
       O     6.94318   -7.48118    7.60191
      H1     7.51672   -8.18332    7.22350
       H     8.76134  -13.47446    7.39471
       O     8.21962  -14.04055    6.82033
      H1     8.45123  -13.80214    5.89141
       H    11.43813  -11.78056   14.92642
       O    11.44322  -10.82026   14.90696
      H1    11.54207  -10.69386   13.96551
       H    15.67794  -12.08149    5.29435
       O    15.94859  -12.11914    4.36934
      H1    16.85597  -11.85122    4.13765
       H    12.76995   -8.72154    6.31703
       O    13.38089   -9.56414    6.35082
      H1    14.25812   -9.19078    6.26258
       H    14.96546  -10.70312    3.36819
       O    15.03125  -10.21273    2.56157
      H1    15.29184   -9.33673    2.90807
       H    14.07827  -13.02951   10.31045
       O    14.06714  -12.11334    9.98631
      H1    13.24007  -11.97182    9.56846
       H     8.98104  -12.91936    3.98314
       O     8.32902  -13.61983    3.99328
      H1     8.04065  -13.65323    3.04473
       H     8.14750   -8.63400   13.74355
       O     8.71127   -7.99460   13.28241
      H1     9.00625   -8.39353   12.40630
       H    12.62101  -11.26549    3.43807
       O    12.20202  -10.43619    3.79327
      H1    12.75441  -10.19412    4.54806
       H    13.76576   -7.76216    8.81401
       O    14.06397   -8.72214    8.91656
      H1    13.53593   -9.21939    8.30233
       H    10.42527   -7.63475    5.01516
       O     9.72152   -7.87188    4.42820
      H1    10.05102   -7.54060    3.62052
       H     5.25402  -12.51501    9.87049
       O     4.86188  -13.32713    9.52681
      H1     5.50236  -13.99284    9.75863
       H     6.96377  -10.32485    5.50942
       O     6.13654  -10.78937    5.29130
      H1     5.95988  -10.86612    4.32815
       H     9.45603  -10.71912    2.83607
       O     9.86458  -11.57421    3.09485
      H1    10.61412  -11.20614    3.57754
       H    11.26046  -11.91550   11.80582
       O    11.41438  -10.99562   12.09757
      H1    12.32463  -10.78436   12.19723
       H     9.27662  -17.36594    9.14534
       O     9.34460  -17.79793    9.97501
      H1     8.77119  -17.33711   10.51528
       H    10.78284   -9.19334   11.35954
       O    10.08844   -8.61605   11.00476
      H1    10.50690   -7.74190   10.76494
       H    15.25611  -13.03881    8.38695
       O    15.61319  -12.80983    7.49463
      H1    16.52123  -13.16768    7.46180
       H    14.01364  -13.85885   13.87319
       O    13.37632  -13.37640   13.42591
      H1    13.68793  -12.49765   13.42781
       H     5.34077  -12.05957    6.63836
       O     4.55178  -12.50808    6.88265
      H1     4.62659  -12.85884    7.76687
       H     7.52562  -11.59568   13.63025
       O     7.87762  -12.39373   13.12914
      H1     7.15302  -13.02916   13.12434
       H    12.59612  -14.63024    9.31362
       O    12.39145  -14.91983    8.40650
      H1    12.80471  -14.31157    7.75309
       H    11.16415   -6.86919    6.91480
       O    11.75191   -7.29755    6.27293
      H1    12.42653   -6.69677    6.05384
       H    14.26698   -9.74999   13.32679
       O    14.09249  -10.57635   12.84197
      H1    14.38393  -10.30977   11.92326
       H    13.15243  -16.59954    8.18739
       O    13.67769  -17.34814    7.85102
      H1    13.70388  -17.94673    8.57568
       H    13.25062  -15.56797   11.14133
       O    13.20971  -14.56260   10.94468
      H1    12.91091  -14.27165   11.78944
       H     5.93414  -13.82242    4.56369
       O     5.19585  -14.41204    4.29950
      H1     5.50148  -14.92999    3.54389
       H    13.00938   -7.76461    2.23405
       O    12.23247   -7.65762    2.81429
      H1    12.10914   -8.62039    2.98725
       H    10.00733  -19.13053    5.05364
       O     9.29801  -18.64523    5.44924
      H1     9.56162  -18.20369    6.22132
       H    15.53381   -8.51533    7.37751
       O    16.13425   -8.58878    6.69007
      H1    17.00884   -8.34093    7.05047
       H     7.12856  -15.26101    9.52385
       O     7.35889  -14.65712   10.23941
      H1     7.60236  -15.16158   11.04494
       H    16.35787  -15.91536    8.97091
       O    16.40891  -16.49342    8.24320
      H1    15.52974  -16.86158    8.06381
       H    10.45618  -12.25662    1.69883
       O    10.78495  -12.80653    0.95343
      H1    11.70258  -12.71270    0.82592
       H     8.81437  -17.23041    4.31958
       O     8.76865  -16.79120    3.45862
      H1     8.65828  -15.91083    3.69922
       H     9.21263  -15.71012    7.44872
       O     9.88355  -16.44545    7.60084
      H1    10.76052  -16.00450    7.66989
       H    15.83519  -10.73209   10.37934
       O    15.69720   -9.80047   10.73439
      H1    15.04449   -9.49916   10.05003
       H     6.87808  -15.25668    7.38620
       O     6.68194  -15.97926    8.00545
      H1     5.74121  -16.21456    7.93141
       H    11.22098  -12.23156    7.93289
       O    12.03144  -11.66458    7.97624
      H1    12.22953  -11.33430    7.10890
       H    10.17209   -9.09922    9.40347
       O    10.24704   -9.37888    8.45649
      H1    10.97874  -10.03012    8.48258

