144
frame 2 | Written by MDAnalysis XYZWriter (release 2.4.3)
       H   -18.47052    0.11238   10.59607
       O   -19.39929    0.16197   10.88540
      H1   -19.35398    0.97210   11.39551
       H   -16.33669    7.76162    9.98920
       O   -16.67964    7.11527   10.64686
      H1   -17.61113    7.04605   10.41817
       H   -16.74619    5.40156    7.63299
       O   -16.02034    4.70649    7.63241
      H1   -15.49197    4.96343    8.40494
       H   -13.66558    1.72874    4.28155
       O   -14.02406    1.02847    3.65007
      H1   -14.99380    0.98491    3.83962
       H   -13.79233    3.51672   12.64410
       O   -13.98660    2.51953   12.71267
      H1   -13.44532    2.28728   13.45389
       H   -16.94504    3.22718    8.17417
       O   -17.43205    2.39215    8.14742
      H1   -18.33566    2.69643    7.92387
       H   -20.02195    4.34461    1.50677
       O   -19.09295    4.38015    1.18024
      H1   -18.87165    3.67002    0.56240
       H   -15.45394    5.52649   10.29642
       O   -14.82398    4.91814    9.95308
      H1   -14.90317    4.26157   10.63089
       H   -14.02464    5.13329   14.27831
       O   -13.90812    5.37650   13.32837
      H1   -12.95221    5.36135   13.15029
       H   -14.19732    8.90561    8.89292
       O   -15.05477    8.96577    9.31895
      H1   -15.25421    9.93829    9.40124
       H   -18.83588    4.97185   14.88563
       O   -18.31329    5.37876   14.21155
      H1   -17.50243    4.81511   14.24778
       H   -16.40421    9.23503    8.02482
       O   -16.85534    9.27948    7.12063
      H1   -16.76873   10.23892    6.94197
       H   -19.13663    1.55499    4.57662
       O   -19.34256    1.24930    3.69886
      H1   -18.64169    1.55698    3.06935
       H   -16.58161   -2.82975   12.46249
       O   -16.89509   -1.96069   12.12955
      H1   -17.81608   -1.80557   12.42690
       H   -11.75995    3.90108    6.53819
       O   -11.14932    4.58298    6.79525
      H1   -11.21190    4.59523    7.79070
       H   -16.60192    2.60152   15.10923
       O   -15.78721    3.01534   14.71650
      H1   -15.42193    2.51785   14.02639
       H   -19.72252    1.79648   13.53550
       O   -19.46316    2.56165   12.93384
      H1   -18.52365    2.40270   12.84335
       H   -17.14771    2.43372    3.77561
       O   -16.83027    2.30336    4.72678
      H1   -17.32558    2.95993    5.25252
       H   -19.62321    7.20309    5.33564
       O   -19.10874    6.41340    4.95250
      H1   -18.68381    6.95101    4.19659
       H   -17.95056    7.15472   14.22670
       O   -17.53925    8.03880   14.31490
      H1   -16.76939    8.05024   13.71696
       H   -13.92100   -0.79496    3.00346
       O   -14.21753   -1.44395    2.36936
      H1   -14.38637   -2.28517    2.79193
       H   -15.45288    1.24577   12.28024
       O   -16.04105    0.75562   12.78258
      H1   -16.01678   -0.10362   12.28626
       H   -16.90031    0.84476    9.30036
       O   -16.73489    0.29832   10.04872
      H1   -16.67978   -0.63050    9.75108
       H   -11.90580   -2.27471    4.43453
       O   -12.14571   -1.39826    4.46747
      H1   -13.00747   -1.57493    4.80877
       H   -14.40264    1.14391   10.13826
       O   -13.92601    1.40894    9.34772
      H1   -13.94448    0.59746    8.77553
       H   -16.34507   -0.16890   14.26995
       O   -16.34904   -0.34247   15.22948
      H1   -16.50552   -1.27730   15.35901
       H   -12.40983    7.54626    4.09174
       O   -12.07530    6.63744    4.18580
      H1   -12.63734    6.25120    4.96000
       H   -18.31833    7.61387    2.10409
       O   -17.85099    7.77180    2.93558
      H1   -16.95855    7.39212    2.84793
       H   -14.27326    1.77834    1.52800
       O   -14.94460    2.00215    0.87150
      H1   -15.11555    1.08722    0.57493
       H   -15.80973    7.61079   11.92269
       O   -15.46840    8.03719   12.73643
      H1   -14.90238    7.34210   13.14686
       H   -17.17620   -1.18946    7.99363
       O   -16.49091   -1.74522    8.36433
      H1   -15.66324   -1.24022    8.33990
       H   -10.78541    1.33688    6.35269
       O   -10.78963    1.39899    7.32193
      H1   -10.01591    1.96146    7.61603
       H   -13.11256   -1.21302    8.21523
       O   -13.61190   -0.49911    7.65647
      H1   -12.89858   -0.03781    7.19770
       H   -13.92521   -2.06778   11.22191
       O   -14.51740   -2.13029   10.44895
      H1   -15.38002   -2.05012   10.88940
       H   -10.89802    2.96269    9.37171
       O   -11.57439    3.64464    9.47307
      H1   -12.35050    3.05274    9.23812
       H   -19.57904   -2.15420    7.71729
       O   -19.17789   -1.26418    7.58972
      H1   -18.78259   -1.32930    6.67140
       H   -17.17638   -3.37777    4.61087
       O   -17.60383   -3.09884    3.77674
      H1   -16.97931   -3.37587    3.06323
       H   -17.37973    0.29254    5.30487
       O   -17.36779   -0.66815    5.43494
      H1   -17.55777   -1.15535    4.62549
       H   -18.07418    3.18915    1.83727
       O   -17.45780    2.50875    2.16580
      H1   -16.93161    2.13801    1.47482
       H   -19.65491   -0.46955    2.52093
       O   -19.30426   -0.74261    1.67096
      H1   -18.41378   -0.39177    1.56239
       H   -17.47260    7.44712    6.88782
       O   -17.81820    6.66879    7.27959
      H1   -18.35511    6.30255    6.55585
       H   -14.28402    2.35815    6.06038
       O   -13.54884    2.83055    5.63737
      H1   -13.79589    3.78685    5.43446
       H   -18.39884   -4.37726    9.66056
       O   -17.66648   -4.43287    9.03407
      H1   -17.51872   -3.50198    8.90462
       H   -14.60994    7.10251    2.61784
       O   -15.30011    6.54881    3.02306
      H1   -15.37793    5.77753    2.45795
       H   -14.95124    5.30543    6.15749
       O   -14.11047    5.52188    5.66116
      H1   -14.46824    5.89792    4.83335
       H   -12.16096    1.41296   11.41671
       O   -11.41644    0.91179   11.78162
      H1   -11.47814    1.14615   12.69863
       H   -15.63969   -1.11467    5.72714
       O   -14.81639   -1.58063    5.64191
      H1   -14.34534   -1.26298    6.43621
       H   -13.20508    6.36164    7.41342
       O   -12.74006    6.71648    8.15577
      H1   -12.91343    6.09432    8.90422

