144
frame 11 | Written by MDAnalysis XYZWriter (release 2.4.3)
       H     7.95038  -12.30151    6.76120
       O     8.18939  -13.11023    7.15864
      H1     7.45271  -13.52529    7.68897
       H    15.59975  -11.45146   12.84451
       O    15.20982  -12.10575   13.51017
      H1    14.41625  -12.33479   13.08956
       H    11.86173   -7.90192    9.73896
       O    10.96575   -7.60419    9.98376
      H1    11.07442   -6.73614   10.42194
       H     5.39130   -8.19908    9.43850
       O     6.09573   -8.31094   10.08242
      H1     6.58319   -9.07461    9.66498
       H     9.19192  -12.91538   13.07083
       O     9.89097  -13.44372   12.66694
      H1     9.94901  -14.23861   13.20231
       H     8.49583   -8.94241    7.10318
       O     8.15330   -8.87051    6.15824
      H1     8.75896   -8.42339    5.60579
       H     7.52281  -11.38014   10.39738
       O     7.45342  -10.80715    9.54880
      H1     8.41767  -10.56840    9.44088
       H     8.73192   -4.28973   12.14556
       O     8.85108   -4.20688   11.16161
      H1     8.29894   -4.90349   10.76440
       H    12.82655  -14.44368   15.03950
       O    12.01838  -14.16586   15.47593
      H1    11.24257  -14.48108   14.91812
       H    14.26109   -7.59148    9.71792
       O    13.57275   -7.49723    9.05126
      H1    13.31220   -6.54924    8.94584
       H    12.23569  -12.52921   15.06212
       O    12.63609  -11.65202   15.16498
      H1    12.81804  -11.35943   14.27245
       H    17.43556  -10.66176   11.62976
       O    16.51377  -10.39830   11.60558
      H1    16.08697  -11.07656   11.01571
       H    14.22398  -11.77274   15.86563
       O    14.88658  -11.75501   16.59192
      H1    14.86624  -10.84215   16.94358
       H    14.59525  -12.16211    9.23668
       O    14.00557  -12.08712    9.98047
      H1    13.49582  -12.88123   10.03849
       H     8.88726  -10.15388   14.06572
       O     9.20900   -9.31385   13.71204
      H1     9.61457   -9.57963   12.88968
       H    11.33697   -6.99636   14.60931
       O    11.73120   -7.86001   14.51183
      H1    11.00629   -8.50738   14.32100
       H    11.06790  -10.66343   15.92527
       O    10.30820  -10.58020   16.54516
      H1    10.26989  -11.32646   17.17249
       H    11.21660   -9.69525   17.67858
       O    11.61382   -9.05995   18.27556
      H1    11.19786   -9.22354   19.13466
       H    13.50525   -8.59009    7.43479
       O    13.39513   -9.46486    7.03976
      H1    12.78094   -9.83485    7.66283
       H     6.21555  -11.81237    8.81301
       O     5.52807  -12.51868    8.80410
      H1     5.84664  -13.34110    9.18409
       H     7.01081   -6.66764    6.74806
       O     7.72469   -5.99967    6.78489
      H1     8.54856   -6.45166    6.83573
       H    13.75871   -7.18778   16.37750
       O    14.16631   -7.19910   15.49266
      H1    13.40440   -7.51744   14.92592
       H     8.85767  -16.12061   11.07287
       O     9.16033  -15.35106   10.56784
      H1     9.12932  -14.55621   11.19297
       H     7.97609  -10.42497    5.42338
       O     7.41748  -11.23680    5.22888
      H1     7.95558  -11.92355    4.79068
       H     6.76253   -6.59757    9.96691
       O     7.07661   -5.69476    9.79475
      H1     7.58933   -5.82036    8.99055
       H    11.47822  -12.55052   12.73501
       O    12.11742  -11.88777   12.46301
      H1    12.22830  -12.04933   11.51067
       H     5.27758  -11.22708   15.11893
       O     5.40912  -11.23667   14.15195
      H1     4.86150  -10.52803   13.90975
       H     8.64263  -15.72492   14.14029
       O     9.00540  -15.23347   14.90999
      H1     8.28701  -14.54223   15.07174
       H    10.85271  -17.72453   11.58541
       O    11.00349  -16.81367   11.92058
      H1    10.47700  -16.24554   11.37896
       H    10.96875  -10.48760   11.99899
       O    10.37522  -10.02497   11.45421
      H1    10.80637   -9.15954   11.44130
       H    11.26997   -5.89320   16.57921
       O    11.02713   -5.38216   15.74740
      H1    11.89363   -5.01918   15.45204
       H     6.37576  -11.79513   12.25100
       O     6.99431  -12.42772   11.85452
      H1     6.47876  -13.19619   11.61082
       H    13.31708   -5.43927   13.37268
       O    13.16824   -6.07459   12.65708
      H1    12.57420   -6.69686   13.06812
       H     8.44059   -5.41176   14.31810
       O     8.37612   -4.54392   13.91236
      H1     8.87163   -3.97835   14.55908
       H    14.39443   -9.12262   11.26859
       O    13.60858   -9.70688   11.25754
      H1    13.86551  -10.54488   10.78399
       H     5.05050   -6.76712   12.20462
       O     4.88275   -7.16702   13.06376
      H1     4.44928   -8.03121   12.88998
       H    11.93617  -14.30330    9.21940
       O    12.25630  -14.00559   10.08467
      H1    12.72267  -14.73955   10.59720
       H     5.17941   -9.44541   11.32883
       O     4.48775   -9.69922   11.99295
      H1     4.10602  -10.53266   11.59430
       H    10.43576   -6.23887    7.41309
       O    10.12712   -7.17254    7.41868
      H1    10.33965   -7.58111    8.28034
       H     5.96256   -8.80662   17.14414
       O     6.73557   -9.06625   16.65299
      H1     6.92908   -8.23145   16.16263
       H     8.90988  -11.46854   15.52067
       O     8.38638  -11.83202   14.81907
      H1     7.51570  -11.46923   14.89256
       H     6.98781  -15.76423    8.16947
       O     7.11547  -14.95554    8.76671
      H1     7.78737  -15.23193    9.41522
       H     6.78217   -7.12941   13.74515
       O     7.55377   -7.24820   14.30467
      H1     8.07829   -7.91208   13.86771
       H    12.28795   -4.41749    9.50139
       O    12.74591   -4.38712    8.66035
      H1    13.75101   -4.48288    8.89389
       H    14.78975   -7.08690   11.65522
       O    15.39196   -7.75133   11.40312
      H1    15.90121   -8.12835   12.18592
       H    10.45451   -4.72354   10.90697
       O    11.42842   -4.90365   10.95013
      H1    11.67007   -4.79877   11.86905
       H     9.98900  -12.53201    7.17168
       O    10.75445  -11.93538    6.99732
      H1    10.67934  -11.89687    6.05049
       H    10.02237   -9.99615    9.30715
       O     9.70299   -9.79400    8.43018
      H1    10.24740  -10.39215    7.87515

