144
frame 9 | Written by MDAnalysis XYZWriter (release 2.4.3)
       H   -16.47892   -6.13625    9.29641
       O   -16.84971   -6.79357    8.66960
      H1   -17.29269   -6.27947    8.02167
       H   -17.87264   -9.70778   11.34914
       O   -17.75556  -10.58341   11.82475
      H1   -18.69635  -10.81754   12.01837
       H   -12.96924   -6.30301   18.42632
       O   -13.57467   -7.00516   18.66504
      H1   -14.03308   -6.67694   19.42467
       H   -12.43029   -9.74753   17.76786
       O   -13.29405   -9.58142   18.10138
      H1   -13.25296   -8.69364   18.46797
       H   -15.84466   -5.52247   13.62515
       O   -15.25713   -4.76946   13.60827
      H1   -15.07679   -4.35157   14.47546
       H   -13.19699   -2.09768   15.13731
       O   -12.25726   -1.79489   15.13784
      H1   -11.78499   -2.53110   14.65423
       H   -14.04204   -9.35696   15.70131
       O   -14.26145  -10.22977   15.45123
      H1   -14.23889  -10.73562   16.31844
       H   -12.79541   -7.65600    9.22935
       O   -13.59281   -8.21073    9.45277
      H1   -14.39921   -7.70549    9.25546
       H   -15.74369   -3.42815   12.55650
       O   -15.75577   -2.75637   11.86939
      H1   -16.59725   -2.32981   12.04380
       H   -17.57256   -7.68829   10.01200
       O   -18.01064   -7.80415   10.89084
      H1   -18.91868   -7.71783   10.54058
       H   -11.78077   -9.65307   12.24500
       O   -11.63209  -10.64713   12.16195
      H1   -12.34587  -10.75061   11.50437
       H   -16.82647  -10.03125   13.44802
       O   -16.71446   -9.60949   14.29763
      H1   -15.82908   -9.83917   14.62215
       H   -17.49630   -9.99667    8.13282
       O   -16.91587   -9.34239    7.68663
      H1   -17.05179   -8.43221    8.06937
       H   -15.05340   -4.91198   10.94053
       O   -14.82981   -5.30025   10.06446
      H1   -14.16921   -4.67559    9.69722
       H   -16.93154   -7.44733   13.96578
       O   -17.24721   -6.72269   13.37349
      H1   -17.14939   -7.14125   12.49757
       H   -12.90969  -11.52237   14.93219
       O   -12.19884  -12.09218   14.56248
      H1   -11.89536  -11.51103   13.80106
       H   -18.17819   -4.01140   15.80973
       O   -18.79499   -4.75864   15.92525
      H1   -19.10131   -4.63187   16.82576
       H   -15.06722  -13.02930    8.95098
       O   -15.96753  -13.35312    8.88869
      H1   -16.07020  -13.99921    9.57771
       H   -12.73003   -0.87640   11.57476
       O   -12.78416   -1.58696   10.89801
      H1   -13.64645   -1.47252   10.48721
       H   -15.10616  -12.05932   12.69603
       O   -15.12472  -11.13733   12.40077
      H1   -16.08995  -11.02713   12.22612
       H   -15.24959   -0.91887   12.21113
       O   -15.03628   -0.13337   12.68846
      H1   -14.03540    0.00306   12.80271
       H   -15.49195  -14.35441   12.42272
       O   -14.99343  -13.82018   13.03243
      H1   -15.33383  -14.07028   13.89959
       H   -11.10780   -7.44372   11.27288
       O   -11.39602   -7.91711   12.03028
      H1   -11.83942   -7.27578   12.63553
       H   -14.27542  -11.17214   10.84880
       O   -13.70980  -10.94920   10.07546
      H1   -13.85062  -10.02134    9.79760
       H   -19.90991   -2.33313    9.59908
       O   -19.43654   -2.55299    8.82170
      H1   -19.76933   -1.96014    8.12507
       H   -14.52462   -7.83951    6.07977
       O   -13.77936   -8.36314    6.45222
      H1   -13.88929   -8.33699    7.37793
       H   -14.10629   -0.46956    8.66187
       O   -14.93677   -0.82724    9.08971
      H1   -15.08043   -1.58707    8.52948
       H   -18.85980   -8.64492   18.44100
       O   -18.95671   -8.37740   17.52299
      H1   -18.93079   -9.22045   17.03122
       H   -16.30993   -9.15226   17.89321
       O   -16.10038  -10.03023   18.17933
      H1   -15.15413  -10.07777   17.92149
       H   -14.07064   -7.33048   16.70379
       O   -14.26658   -7.22872   15.73012
      H1   -15.22832   -7.07483   15.65866
       H   -17.58824   -7.18019   17.18017
       O   -16.99035   -6.70339   16.59601
      H1   -17.55692   -6.07729   16.14264
       H   -11.65015   -4.73871   13.57314
       O   -11.16209   -3.89654   13.74192
      H1   -10.73972   -3.58275   12.94705
       H   -17.31723  -12.22379    8.88872
       O   -18.14762  -11.68008    9.07616
      H1   -18.04263  -11.37658    9.98587
       H   -19.09561   -9.49398    6.77162
       O   -19.61068   -8.68204    6.94140
      H1   -19.10072   -7.96473    6.59140
       H   -14.56915   -3.20729   16.57622
       O   -14.86670   -3.09056   15.64720
      H1   -15.43696   -2.33162   15.62461
       H   -19.95455   -5.95228    9.07552
       O   -19.52715   -5.35098    8.47282
      H1   -19.39135   -4.46995    8.85814
       H   -11.74062   -6.43593    7.92542
       O   -11.47481   -6.37127    8.83548
      H1   -12.18663   -5.76825    9.15832
       H   -17.99285   -0.42389   12.70580
       O   -17.89902   -1.35034   12.92427
      H1   -18.24581   -1.40723   13.83556
       H   -15.58962  -10.29947    6.76974
       O   -14.78555  -10.75936    6.47956
      H1   -14.21054   -9.99827    6.27638
       H   -17.48990   -1.29311   15.65015
       O   -18.30234   -1.83923   15.57095
      H1   -18.67839   -1.80775   16.47350
       H   -18.62241  -11.48611   16.77256
       O   -18.78144  -10.81694   16.05673
      H1   -17.91301  -10.50413   15.64310
       H   -15.50297   -6.19024    5.68476
       O   -15.78765   -6.91229    5.14052
      H1   -15.26410   -7.02925    4.35335
       H   -13.75296   -4.64970    6.82801
       O   -14.71036   -4.92745    6.70382
      H1   -15.23312   -4.44137    7.32787
       H   -17.71096   -6.69107    5.16628
       O   -18.56163   -6.29725    5.42736
      H1   -19.18404   -6.57894    4.74906
       H   -17.23122   -3.23519    8.43364
       O   -16.29765   -3.51709    8.47680
      H1   -16.17093   -3.94741    9.30660
       H   -13.20427   -6.44403   14.62111
       O   -12.79388   -6.03055   13.83697
      H1   -13.71010   -5.76469   13.48661
       H   -12.55746   -3.23058    9.88513
       O   -12.65522   -3.83954    9.14598
      H1   -12.09884   -3.47154    8.47452
       H   -15.12840   -8.59344   12.65602
       O   -14.96672   -7.84509   12.04628
      H1   -14.23892   -8.08930   11.43627

