144
frame 0 | Written by MDAnalysis XYZWriter (release 2.4.3)
       H    -9.55817   -1.87240  -10.05523
       O   -10.42376   -1.45499  -10.10274
      H1   -10.75198   -1.40253  -11.01585
       H   -17.04082   -2.16456  -11.01205
       O   -16.30113   -1.67590  -11.46378
      H1   -15.58068   -2.24331  -11.72559
       H   -17.39836   -0.21628  -12.29210
       O   -17.71636    0.69004  -12.25034
      H1   -18.38318    0.73958  -12.89507
       H    -9.27032   -4.90428  -16.13225
       O    -9.67784   -5.74857  -15.75865
      H1   -10.05410   -6.13720  -16.57285
       H   -14.81701   -0.64983  -13.95566
       O   -14.57357    0.19152  -13.49340
      H1   -13.87630    0.64351  -14.04892
       H    -7.34822   -3.17396  -16.59560
       O    -8.26755   -3.51755  -16.86942
      H1    -8.87137   -2.82512  -16.60224
       H   -12.14210    1.15726  -15.04662
       O   -13.03578    1.46370  -15.07025
      H1   -13.16666    2.42741  -14.86732
       H   -17.57379   -5.37469  -15.47937
       O   -18.50908   -5.25642  -15.33270
      H1   -18.71736   -5.94351  -14.65103
       H   -14.52078    0.38572   -9.70044
       O   -14.17082   -0.47650  -10.01860
      H1   -14.92343   -0.89125  -10.49388
       H   -12.60179   -5.56523  -10.72816
       O   -13.07536   -4.83854  -10.30646
      H1   -12.40491   -4.39330   -9.67491
       H   -15.11037   -0.02268  -17.12818
       O   -14.19845   -0.46574  -17.06861
      H1   -13.63317    0.15344  -16.63031
       H   -14.99600   -4.87220  -10.10746
       O   -15.91248   -5.08052  -10.07671
      H1   -16.19310   -4.64046   -9.25064
       H   -13.02839    4.93046  -18.20327
       O   -13.45796    4.36157  -18.84645
      H1   -13.28815    3.44524  -18.57499
       H   -11.09754   -5.47867  -18.24813
       O   -11.04102   -6.43415  -18.00453
      H1   -11.06439   -6.95522  -18.87354
       H   -14.87520    1.76170  -12.27696
       O   -15.52001    2.29380  -11.76070
      H1   -16.25443    1.66979  -11.60446
       H   -13.88102   -8.32380  -15.59420
       O   -14.43979   -8.58008  -14.83865
      H1   -15.39275   -8.58165  -15.10214
       H   -15.73432   -6.62969  -17.51190
       O   -16.74803   -6.62208  -17.45800
      H1   -17.01367   -7.15797  -18.21334
       H   -12.78716   -0.47779  -12.30445
       O   -11.88007   -0.64020  -12.57320
      H1   -11.72177   -0.04385  -13.33360
       H   -12.25954   -6.10441  -13.77433
       O   -11.92679   -5.26005  -14.11870
      H1   -11.18589   -5.51863  -14.68227
       H   -15.97544    4.04726  -14.25597
       O   -15.61482    4.93642  -14.32989
      H1   -16.23795    5.31506  -14.95486
       H   -13.40033    1.17541  -19.94897
       O   -14.09065    0.53245  -19.92012
      H1   -14.00716    0.04551  -19.10122
       H   -19.21138   -1.22114  -10.44881
       O   -18.61112   -2.00109  -10.21016
      H1   -18.27034   -1.93764   -9.33033
       H   -14.96111   -5.59032  -15.75040
       O   -15.52802   -5.28641  -15.06091
      H1   -15.71564   -6.10241  -14.53796
       H   -11.24864   -2.11642  -13.08108
       O   -10.78148   -2.90664  -13.40928
      H1   -11.36759   -3.69126  -13.33780
       H   -13.84562   -3.49723  -17.31915
       O   -14.35039   -3.76355  -18.09472
      H1   -15.18273   -3.31185  -18.13991
       H    -7.83597   -0.47764  -12.82883
       O    -7.61443   -1.28143  -13.41739
      H1    -8.44243   -1.63507  -13.70958
       H    -9.61828   -1.77559  -19.49236
       O   -10.29644   -1.22729  -19.07173
      H1   -11.03813   -1.40300  -19.67439
       H   -10.05314    3.90644  -15.75154
       O    -9.66299    3.22490  -15.13463
      H1    -9.12632    3.68274  -14.42096
       H   -19.36692   -3.66389  -16.53964
       O   -19.62495   -2.91203  -17.09376
      H1   -19.64619   -2.10552  -16.57951
       H   -18.42411    3.28855  -13.13553
       O   -18.76229    3.87868  -13.86723
      H1   -18.63008    4.76878  -13.43175
       H   -16.67804    0.97277  -17.88435
       O   -16.85130   -0.00671  -17.64369
      H1   -16.85870   -0.44555  -18.49551
       H   -14.07814   -5.31646  -17.52894
       O   -13.94830   -6.20682  -17.03247
      H1   -13.02499   -6.48979  -17.14710
       H    -9.69359    0.38720  -18.51693
       O    -9.35034    1.08877  -17.93152
      H1    -8.68205    1.53454  -18.48850
       H   -15.78679    2.16440   -9.96857
       O   -15.50715    1.82930   -9.10613
      H1   -16.27771    1.59423   -8.53681
       H   -18.82491   -0.06249  -16.73833
       O   -19.65700   -0.00579  -16.28318
      H1   -20.16270    0.64973  -16.77043
       H   -13.79974    4.59202  -14.31132
       O   -13.01250    4.08610  -14.49516
      H1   -12.49697    4.06294  -13.65988
       H   -13.48430   -7.89990  -13.46687
       O   -12.68594   -7.63919  -12.97296
      H1   -12.01231   -8.31927  -13.24322
       H   -14.85681   -1.49573  -15.93472
       O   -15.05548   -2.13288  -15.19493
      H1   -15.35669   -2.97877  -15.52944
       H   -17.88849   -3.37897  -18.21699
       O   -16.96724   -3.74714  -18.14035
      H1   -16.99579   -4.69568  -18.18781
       H   -17.72018   -6.58382  -12.59719
       O   -16.75529   -6.48259  -12.44710
      H1   -16.57402   -5.68082  -11.90890
       H   -13.55267   -2.82781  -15.56260
       O   -12.82306   -3.33942  -15.84866
      H1   -12.72641   -4.11126  -15.24546
       H   -10.40646   -1.50412  -17.19963
       O   -10.35702   -1.86635  -16.25815
      H1   -11.14635   -2.42435  -16.11834
       H   -12.14745    2.02270  -16.95401
       O   -11.83617    2.35892  -17.78526
      H1   -10.88922    2.10764  -17.71828
       H    -9.37678   -4.03062  -12.40226
       O    -8.76225   -4.21297  -11.65572
      H1    -9.39814   -4.42499  -10.98976
       H   -18.00026   -9.13913  -15.50643
       O   -17.08306   -8.77425  -15.67920
      H1   -17.27596   -7.95385  -16.22365
       H   -10.08798    0.02287  -15.31111
       O   -10.52826    0.64944  -14.71446
      H1   -10.00642    1.44499  -14.93230
       H   -18.25481   -3.80984  -14.36351
       O   -18.42914   -3.05302  -13.75082
      H1   -17.55332   -2.87837  -13.39160
       H   -14.23998   -3.78331  -12.93459
       O   -14.13760   -3.18893  -12.18027
      H1   -13.54462   -3.68951  -11.59789

