144
frame 5 | Written by MDAnalysis XYZWriter (release 2.4.3)
       H    -6.76764    8.84225  -17.86599
       O    -7.56562    9.11274  -17.44319
      H1    -7.84526    8.49001  -16.76719
       H    -6.56101    5.13635  -18.84948
       O    -5.92297    5.65021  -18.26095
      H1    -5.07513    5.26020  -18.39484
       H     1.09563   12.21468  -12.80125
       O     1.17643   11.51880  -12.16191
      H1     0.38309   11.57003  -11.65398
       H    -1.61644    6.41166  -14.33489
       O    -2.28656    5.76771  -14.14670
      H1    -2.27305    5.37571  -13.27685
       H    -3.06253    7.73772   -9.98261
       O    -3.86226    7.29940  -10.37621
      H1    -4.12284    7.73242  -11.14502
       H    -6.47419   11.89195  -16.45793
       O    -6.13436   11.42917  -15.69821
      H1    -6.48825   10.53229  -15.59532
       H     3.85954    5.71346  -19.01366
       O     3.11852    5.45084  -18.48017
      H1     2.56851    6.20232  -18.57261
       H    -5.60368    7.19319  -18.42399
       O    -5.43729    8.09355  -18.69041
      H1    -4.84909    8.66399  -18.15416
       H    -1.52123   13.39152  -13.11586
       O    -1.63643   14.11111  -12.43875
      H1    -0.95381   14.76711  -12.61232
       H    -6.92948    7.18340  -14.33181
       O    -6.27090    6.73222  -13.80529
      H1    -5.82998    6.22585  -14.47520
       H    -2.37251    7.41717  -16.87776
       O    -3.04057    7.74777  -16.27289
      H1    -3.19541    8.67931  -16.36543
       H     1.37067    8.20074   -9.62377
       O     0.98485    7.94006  -10.44889
      H1     0.99939    6.95381  -10.42572
       H     1.64079    2.76033  -14.72936
       O     0.88694    3.32313  -14.71705
      H1     0.18544    2.92198  -14.15807
       H    -1.32287    9.68164  -13.62257
       O    -1.41082   10.10316  -14.48328
      H1    -2.31136   10.59006  -14.29385
       H     1.25410    3.22164  -18.73856
       O     1.62838    3.30362  -19.65849
      H1     2.31192    3.95049  -19.59438
       H     3.52203    8.75484  -16.71456
       O     3.76830    8.50705  -17.65552
      H1     4.12717    9.28308  -18.09673
       H    -4.02881    2.15427  -19.54739
       O    -3.31539    1.74816  -19.03518
      H1    -3.28669    2.33652  -18.23902
       H    -6.68006    8.75548  -11.90800
       O    -6.89350    9.38865  -12.62329
      H1    -7.88970    9.34478  -12.66132
       H     2.23715    5.60289  -10.55380
       O     1.42181    5.20874  -10.89235
      H1     1.55990    5.26454  -11.88034
       H    -4.06512    9.88206  -13.75897
       O    -3.89744   10.84440  -13.71118
      H1    -4.67342   11.21682  -14.16285
       H     2.22413    8.02234  -18.01578
       O     1.41973    7.88512  -18.50238
      H1     0.77989    7.40508  -17.91527
       H    -3.26141    6.14136  -19.67631
       O    -3.29580    5.51656  -18.93285
      H1    -3.21054    4.67350  -19.33189
       H     2.78676    5.93246  -13.87186
       O     1.98537    5.52186  -13.48563
      H1     1.78412    4.78391  -14.13427
       H     0.09148   12.20163  -18.98380
       O     0.00230   13.14777  -18.74797
      H1    -0.81608   13.26097  -18.30429
       H     0.03797    1.76499  -13.12004
       O    -0.65615    2.39674  -12.80271
      H1    -1.48576    1.79537  -12.87257
       H    -0.70916    8.59080  -15.14024
       O    -0.40938    7.65219  -15.13419
      H1    -0.27202    7.43832  -14.17271
       H     1.12874    8.67841  -15.05549
       O     1.93269    9.16787  -14.95415
      H1     2.14053    9.02622  -14.06282
       H     1.66975   12.02881  -15.76501
       O     2.20654   11.85624  -14.94098
      H1     2.19373   10.86978  -14.92025
       H    -5.99252    0.79228  -17.29651
       O    -6.82798    1.24679  -17.62635
      H1    -6.91334    2.03583  -17.05974
       H    -3.76226    3.80762  -11.22212
       O    -3.36450    4.69813  -11.49725
      H1    -3.83614    5.38926  -10.95473
       H    -1.12528    3.62651  -16.88585
       O    -0.18999    3.66508  -17.07459
      H1     0.16291    3.51613  -16.15591
       H    -4.60408    6.09527  -16.14173
       O    -4.58953    5.34642  -15.55638
      H1    -3.81747    5.47078  -15.03829
       H    -1.43569   12.95176  -15.75017
       O    -1.96588   13.08062  -16.56988
      H1    -2.61771   13.72722  -16.31639
       H    -6.98034    4.59293  -16.23460
       O    -7.34676    3.82890  -15.78466
      H1    -8.15012    3.52661  -16.31756
       H    -2.76470    0.16844  -16.52411
       O    -3.21070    0.58448  -15.72285
      H1    -2.48022    0.92011  -15.22630
       H    -9.09290    8.17546  -14.95397
       O    -8.58252    7.47984  -15.38683
      H1    -9.17317    6.81798  -15.81962
       H    -3.15529    2.55391  -16.04970
       O    -3.03157    3.25851  -16.70900
      H1    -3.60337    3.97061  -16.34018
       H     4.94286    4.76820  -16.06374
       O     4.00323    4.78907  -15.90691
      H1     3.74627    5.05099  -16.78632
       H    -1.89440    5.90779  -18.03347
       O    -1.05245    6.28474  -17.75612
      H1    -0.60554    5.58792  -17.25811
       H     0.20994   12.39031  -14.39335
       O    -0.75210   12.51482  -14.29667
      H1    -1.01728   11.60342  -14.31642
       H    -3.43833    7.60238  -14.28253
       O    -3.93175    8.09135  -13.58408
      H1    -4.81775    7.68257  -13.52201
       H    -1.96171    8.21327  -12.66704
       O    -1.05033    8.08337  -12.41842
      H1    -1.05221    8.05941  -11.49076
       H     2.00769   12.25157  -18.40390
       O     2.68596   12.14987  -17.72489
      H1     3.45424   11.82047  -18.18744
       H     2.26129    9.98214  -12.38226
       O     2.68791    9.12227  -12.34144
      H1     2.06621    8.58282  -11.83479
       H    -7.66395    2.78789  -12.30021
       O    -6.88056    2.23610  -12.50211
      H1    -6.70520    2.28733  -13.43840
       H    -8.29209    4.83199  -14.30277
       O    -8.64813    5.16385  -13.45609
      H1    -8.03244    5.77304  -13.01771
       H     4.57183    6.96405  -14.95249
       O     4.19657    7.10920  -14.05489
      H1     4.62398    7.92242  -13.73090
       H    -3.26747   10.92627  -17.01277
       O    -4.01410   10.30960  -17.04504
      H1    -4.75204   10.81222  -16.70847

