147
frame 0 | Written by MDAnalysis XYZWriter (release 2.4.3)
       H    16.98398   13.46554    3.12700
       O    16.45951   13.09319    2.38835
      H1    16.83584   12.22853    2.26136
       H     9.75804   15.78397    2.23196
       O     8.91737   16.15095    2.12646
      H1     8.21543   15.45651    2.34494
       H    18.11044   10.24123    0.65080
       O    18.53545   10.49368    1.46308
      H1    19.46017   10.17378    1.23600
       H    14.16148   15.05807    1.64928
       O    14.05304   14.36483    0.92262
      H1    14.83985   13.86036    1.14155
       H    13.86005    8.77027    2.17379
       O    14.52975    8.06800    2.41656
      H1    14.94027    7.83870    1.53623
       H     9.30681   12.32942    8.13736
       O     9.89117   13.01825    7.80515
      H1     9.95867   13.03024    6.81543
       H    13.05577   19.17860    1.99662
       O    12.91830   19.99650    2.56311
      H1    12.15766   19.88639    3.13530
       H    19.99186   17.04318    9.75773
       O    19.15506   16.62012    9.43302
      H1    19.15054   15.73027    9.78779
       H    15.20490   12.18414   -0.57464
       O    15.45483   11.64423    0.15226
      H1    14.89020   10.87282    0.02175
       H    18.31143   18.22610    2.40082
       O    18.71089   18.91545    1.81506
      H1    18.26727   19.78650    2.09139
       H    12.90398   15.63123    7.15531
       O    12.93807   14.73045    7.54261
      H1    13.71150   14.76483    8.18959
       H    15.00025    9.97957    8.44960
       O    15.19576    9.33405    9.19480
      H1    15.70527    8.67703    8.79799
       H    14.24922   16.61485    3.65562
       O    14.26472   15.71502    3.35116
      H1    13.88369   15.28501    4.07388
       H    15.94225   19.03700   -0.41852
       O    15.91324   19.65501   -1.13501
      H1    16.80117   19.67911   -1.46778
       H    12.46797   18.50199   -0.86887
       O    12.30008   18.56744   -1.78923
      H1    13.10940   18.96895   -2.21668
       H    15.87534    8.79795    2.86154
       O    16.64133    9.17822    3.38894
      H1    17.43851    9.20850    2.74802
       H    18.91075    9.01968    7.07100
       O    19.06778    8.39292    7.78138
      H1    18.32755    7.74510    7.81741
       H    15.04818   13.85690    9.60159
       O    15.01920   14.78313    9.31847
      H1    15.65799   15.34594    9.84779
       H    17.90425   10.27323   -1.66325
       O    17.42788   10.05967   -0.84981
      H1    16.75738   10.64412   -0.55628
       H    18.66804    9.76748    4.84570
       O    18.52806   10.21687    5.69937
      H1    19.27560   10.87052    5.70348
       H    12.04278   17.14270    6.34735
       O    12.98964   17.20164    6.18142
      H1    13.12961   18.00655    5.66457
       H    16.50164   16.87704   -0.21569
       O    16.07825   17.44728    0.47445
      H1    16.44716   17.08816    1.28572
       H     9.70610   14.44827    5.07406
       O    10.25064   13.67458    4.93420
      H1    11.13897   13.84192    4.56813
       H    17.16813   12.68455   -1.41842
       O    16.64005   13.27545   -1.97607
      H1    17.11136   14.16843   -1.96762
       H    15.12770   18.97488    4.62512
       O    14.72865   18.35190    4.03581
      H1    14.13619   18.80042    3.53508
       H    16.98320   11.68105    8.29282
       O    16.90187   11.91310    7.36137
      H1    17.36845   11.26898    6.80645
       H    15.16408    8.00654    4.67451
       O    15.01764    7.42136    5.40230
      H1    14.17150    7.01188    5.43872
       H    13.90467   12.97137    5.02602
       O    13.18211   13.62058    5.14572
      H1    13.19594   13.96020    6.10305
       H    13.96599   17.76444   11.25527
       O    14.06754   17.93383   10.31674
      H1    14.64242   17.23704   10.02306
       H    17.15872   19.61388    5.55376
       O    17.72449   18.85156    5.47697
      H1    18.64157   19.08727    5.12578
       H    14.08117   17.59647    0.95210
       O    13.16179   17.95137    0.97376
      H1    12.61135   17.12212    1.10097
       H    15.15690   11.46833    7.19057
       O    14.23531   11.12119    7.33114
      H1    13.90719   10.99867    6.43652
       H    10.81475   13.61577   -0.01070
       O    10.26950   13.92220   -0.80796
      H1    10.37621   14.89153   -0.79024
       H    15.69067   11.22303    5.17982
       O    15.05067   11.70389    4.65241
      H1    15.51958   12.10979    3.94414
       H    11.80746   10.44499    6.38899
       O    11.80787   10.79899    5.49501
      H1    12.02334   11.73110    5.61245
       H    10.16760   17.91697    6.66681
       O    10.42455   17.64946    5.79798
      H1     9.79898   16.89388    5.62514
       H    17.46587   17.47761    3.89387
       O    17.85172   16.84383    3.25444
      H1    18.40715   16.30286    3.85842
       H    16.13661   15.56027    7.77449
       O    16.63265   15.90687    7.08359
      H1    16.68101   16.87363    7.15674
       H    11.61574   15.10506    9.26049
       O    11.50032   15.75235   10.00868
      H1    12.32493   16.25855    9.84400
       H    13.91032   14.19280   -3.23283
       O    14.67686   14.01635   -3.71715
      H1    15.31476   13.66263   -3.09849
       H    16.64149   15.46480    4.17415
       O    16.94888   14.70955    4.61547
      H1    16.70901   14.83897    5.55583
       H    13.53083   12.25110    9.92698
       O    14.38048   12.27768   10.45126
      H1    14.42765   11.51824   11.05374
       H    12.52350   15.40930    2.87631
       O    11.68342   15.21145    2.37813
      H1    11.85361   14.27402    2.04936
       H    13.79545   10.90734    3.32422
       O    13.01075   10.37647    3.04631
      H1    12.60898   10.39517    3.91354
       H    18.83451   18.53695   -2.03124
       O    18.03646   18.72929   -2.59527
      H1    18.40462   19.11921   -3.35373
       H    12.73651   13.07087    1.11874
       O    11.85516   12.70064    1.45367
      H1    12.03938   11.97932    2.05170
       H    17.56436   16.54008   10.33401
       O    16.80733   16.44262   10.86196
      H1    16.99349   15.69752   11.47690
       H    17.40322   13.98778    8.70739
       O    18.06333   14.04548    9.40664
      H1    17.55022   13.95583   10.24265
       H    16.83254   16.34375   -2.55843
       O    17.52625   15.86398   -2.02273
      H1    18.27272   15.85089   -2.64913

