147
frame 11 | Written by MDAnalysis XYZWriter (release 2.4.3)
       H   -16.34604   -7.27335    8.80466
       O   -17.11571   -7.79991    8.98205
      H1   -17.91340   -7.18536    8.83396
       H   -16.20720   -5.14569   -2.28255
       O   -16.41210   -4.38992   -2.94842
      H1   -17.40226   -4.51115   -3.20509
       H   -16.65623    0.09704    6.23798
       O   -16.36182   -0.55271    5.59496
      H1   -15.90415   -0.02092    4.89175
       H   -16.77486   -7.21153   -2.02046
       O   -16.16364   -6.71595   -1.43527
      H1   -15.30724   -7.20343   -1.53015
       H   -16.19567    2.37483    7.24644
       O   -16.52674    1.48771    7.31447
      H1   -17.48349    1.55739    7.17422
       H   -17.18408    0.43642    2.17380
       O   -16.71029    1.20428    2.46659
      H1   -17.37679    1.90430    2.43747
       H   -13.75634   -3.42242   -4.82134
       O   -14.04454   -4.13484   -4.25263
      H1   -14.87412   -3.85892   -3.83513
       H   -12.73881   -2.11077   -0.03167
       O   -11.95795   -2.16167   -0.67977
      H1   -11.26495   -2.05619   -0.02439
       H   -11.81266   -5.22712    3.09960
       O   -12.19679   -5.19543    4.03268
      H1   -11.43695   -5.60327    4.56004
       H   -17.39165  -10.65344    7.72822
       O   -17.40532  -10.14613    6.86527
      H1   -17.11401   -9.23641    7.22278
       H   -13.38902    0.32828    1.81164
       O   -13.69661    0.08195    2.65117
      H1   -14.01986   -0.81718    2.45382
       H   -15.31771   -6.35270    9.97649
       O   -15.25020   -5.86247    9.15754
      H1   -14.30781   -5.63505    9.03167
       H   -19.03077   -6.23870   -0.38433
       O   -19.92471   -6.15324   -0.65174
      H1   -20.13063   -5.26155   -0.43671
       H   -12.15398   -0.68209    4.23787
       O   -11.22808   -0.95607    4.00596
      H1   -10.75466   -0.81541    4.83605
       H   -13.19999   -2.15035    6.12190
       O   -13.57045   -1.19342    6.17211
      H1   -14.54066   -1.18271    6.06529
       H   -18.34513  -10.25200    0.97644
       O   -18.95889   -9.56290    0.58077
      H1   -19.45086  -10.14722   -0.09378
       H   -10.53127   -3.14898    6.28726
       O   -11.49654   -3.26037    6.07708
      H1   -11.54027   -3.72704    5.18494
       H   -15.85307   -3.89320    2.95235
       O   -16.19080   -4.37061    2.20227
      H1   -15.92633   -5.31189    2.28405
       H   -13.69703   -4.11069    4.63135
       O   -14.42342   -3.46791    4.54066
      H1   -15.15330   -3.76902    5.11676
       H   -19.60841   -2.91174    9.68709
       O   -19.15182   -3.32843    8.95599
      H1   -19.53504   -2.91961    8.17380
       H   -12.26589   -1.30676    9.42918
       O   -12.71753   -0.55308    8.93120
      H1   -12.89725   -0.80148    8.03247
       H   -12.64679   -4.63919   -2.47758
       O   -12.19336   -5.27195   -1.86228
      H1   -11.71808   -4.73764   -1.26312
       H   -18.91764  -10.20228    3.55945
       O   -19.20733   -9.34090    3.38999
      H1   -19.29070   -9.28592    2.40634
       H   -13.89493   -7.62065    5.68645
       O   -13.12216   -8.05673    6.16505
      H1   -13.19238   -7.72969    7.08619
       H   -14.28705   -0.98739    9.48255
       O   -15.08501   -1.17148    9.95137
      H1   -15.56016   -1.84267    9.46415
       H   -15.36786   -8.99187    2.43660
       O   -15.08110   -9.88889    2.62004
      H1   -14.11803   -9.80964    2.78562
       H    -9.92813   -7.07681    5.83791
       O   -10.78097   -6.61152    5.88044
      H1   -11.52454   -7.18942    5.81785
       H   -10.35242   -3.34555    1.60268
       O   -10.08899   -2.43159    1.75924
      H1   -10.54390   -2.18817    2.60272
       H   -11.64452   -5.73984    1.28863
       O   -10.87239   -5.21893    1.56840
      H1   -10.11624   -5.75146    1.28177
       H   -18.78774   -4.89538    3.99725
       O   -18.80536   -4.14916    3.40664
      H1   -18.12494   -4.38125    2.73952
       H   -18.82095   -1.90474   -0.03382
       O   -19.63929   -1.35753    0.10588
      H1   -19.64077   -0.91467    0.94732
       H   -17.93295   -1.18240    4.65506
       O   -18.70036   -1.43315    4.10052
      H1   -18.57128   -2.38853    3.97762
       H   -17.02665   -3.48283   -0.58680
       O   -17.19068   -2.57739   -0.44767
      H1   -16.43637   -2.21210   -0.91900
       H   -12.35593    0.06909   -0.63072
       O   -12.55579    0.67632    0.06325
      H1   -11.77404    1.22319   -0.02521
       H   -19.61503   -0.89014   -2.27397
       O   -18.84250   -1.15121   -2.73529
      H1   -18.14768   -1.48040   -2.14979
       H   -14.97855   -7.25744    1.70379
       O   -15.75465   -7.25315    2.26070
      H1   -16.53045   -7.26424    1.69366
       H   -14.83683   -1.19248   -1.74421
       O   -15.15465   -1.09893   -0.82229
      H1   -15.37174   -0.19536   -0.67311
       H   -10.66795   -5.51360    7.41989
       O   -10.06055   -4.98383    7.99625
      H1   -10.76947   -4.36306    8.22666
       H   -12.89845   -8.23968   -1.88841
       O   -13.43899   -7.51215   -1.50481
      H1   -12.98917   -6.70333   -1.63710
       H   -18.44460   -7.90187    0.69128
       O   -17.82799   -7.11158    0.67558
      H1   -17.22676   -7.10493   -0.09551
       H   -15.78400  -10.49706    6.55188
       O   -14.81006  -10.44624    6.33918
      H1   -14.60210   -9.49331    6.29233
       H   -14.27768    1.28776    0.19127
       O   -15.24997    1.44890    0.23535
      H1   -15.52337    1.33567    1.18068
       H   -15.34509   -6.18416    5.23726
       O   -15.45248   -7.14764    4.94858
      H1   -15.58259   -7.06829    3.98293
       H   -16.33739   -4.18565    7.14373
       O   -16.29898   -4.72554    6.33247
      H1   -17.14533   -5.15025    6.25633
       H   -17.51963   -6.99419    4.94719
       O   -18.34896   -6.52902    5.09479
      H1   -19.05847   -7.05352    4.89191
       H   -17.47415   -3.42141    8.95088
       O   -16.52202   -3.39875    8.72639
      H1   -16.15975   -4.23466    9.07493
       H   -13.18481   -7.44622    0.24080
       O   -13.21131   -7.11322    1.13453
      H1   -12.52993   -7.55427    1.61968
       H   -14.87017   -2.01421    1.09791
       O   -14.22237   -2.63817    1.52202
      H1   -14.68977   -3.37343    1.89363
       H   -12.96559   -3.70996    9.01940
       O   -12.95235   -4.34006    8.26481
      H1   -12.58545   -3.88940    7.49466

