147
frame 2 | Written by MDAnalysis XYZWriter (release 2.4.3)
       H    -5.73883  -17.57945   11.24295
       O    -5.75934  -16.88867   10.61775
      H1    -5.78536  -17.23177    9.73678
       H    -9.18145  -18.76832    1.63291
       O    -9.32141  -19.47644    0.89946
      H1   -10.14207  -19.90867    1.15107
       H     1.73431  -19.46815   -2.79309
       O     2.51096  -19.46875   -2.23814
      H1     2.31914  -18.92414   -1.46617
       H    -0.41811  -16.65073    1.50667
       O     0.45583  -17.01658    1.37150
      H1     1.03594  -16.46427    1.93539
       H     0.22578  -12.65105    5.28582
       O    -0.06074  -11.79044    5.54197
      H1     0.73829  -11.32872    5.87549
       H     2.79869  -15.18037    1.38735
       O     2.75478  -15.73137    2.15329
      H1     3.49882  -16.31855    2.10416
       H    -5.98260  -16.45297    6.39877
       O    -5.64440  -16.07157    5.55673
      H1    -6.44325  -15.61953    5.21503
       H    -9.02315  -16.36757    8.32588
       O    -9.40950  -16.84327    7.53575
      H1    -9.26402  -17.81502    7.59489
       H    -9.66821  -17.24130    2.86580
       O    -8.73076  -17.56838    2.93114
      H1    -8.54925  -18.05714    3.78325
       H    -7.01959  -12.09379    5.61271
       O    -7.00234  -11.62028    4.77111
      H1    -7.70588  -11.95202    4.19870
       H    -5.46575  -19.52110   -2.14862
       O    -5.31988  -18.72691   -1.64147
      H1    -6.06519  -18.14275   -1.77055
       H    -3.80136  -10.16881    6.52516
       O    -3.57702   -9.86796    5.62972
      H1    -3.57585  -10.66499    5.09821
       H    -0.05781  -14.22919    4.26660
       O     0.60543  -14.27692    4.94572
      H1     1.50555  -14.31065    4.62385
       H     5.28790  -18.14422    1.62320
       O     4.80325  -17.36666    1.64056
      H1     5.57465  -16.79795    1.86874
       H    -3.99227  -16.47100    5.55986
       O    -3.02950  -16.31861    5.51847
      H1    -2.64255  -17.14798    5.09542
       H    -4.35826  -15.89608    9.95618
       O    -3.84705  -15.02274    9.99023
      H1    -2.87307  -15.17392   10.02929
       H     4.16016  -17.40004    7.77703
       O     4.47540  -17.22438    8.68166
      H1     3.70908  -16.79099    9.11863
       H     0.27528  -18.30142    7.98063
       O     0.15069  -17.62998    8.62769
      H1     1.02261  -17.39728    8.93642
       H    -7.34659  -16.33861    2.64700
       O    -6.50547  -15.88866    2.39106
      H1    -6.52975  -15.87753    1.45018
       H    -4.91401  -11.27461    0.60162
       O    -4.75172  -11.11437    1.53905
      H1    -4.97410  -11.91126    2.05497
       H    -2.86006  -18.10459    3.45196
       O    -2.42597  -18.65790    4.15478
      H1    -1.48115  -18.62237    3.98637
       H    -6.73510  -18.48674    7.49707
       O    -6.07869  -17.91934    7.87641
      H1    -5.24344  -18.50819    7.81404
       H    -3.31477  -19.22551    8.89401
       O    -3.42099  -18.27167    8.85219
      H1    -2.54757  -17.94320    8.51970
       H     0.73306  -19.44428   -4.68490
       O     0.28062  -19.96745   -4.02555
      H1    -0.39956  -19.42087   -3.56100
       H     0.81380  -11.16215    8.45248
       O    -0.08178  -11.35315    8.54029
      H1    -0.38397  -11.70006    7.67058
       H    -4.68157  -14.83881   -0.71223
       O    -4.08661  -14.33484   -1.30469
      H1    -3.27969  -14.89514   -1.38742
       H     4.20192  -17.51151    5.32523
       O     3.63587  -18.05298    5.89083
      H1     2.83904  -17.50504    5.85020
       H    -3.01346  -14.55945    5.39119
       O    -3.12557  -13.62340    5.28429
      H1    -3.79823  -13.57588    4.59013
       H    -5.83631  -12.43146    3.89360
       O    -5.18923  -13.06785    3.42642
      H1    -5.63489  -13.92135    3.25098
       H    -9.02191  -16.10072    5.85746
       O    -8.69809  -15.47953    5.18933
      H1    -8.23279  -14.78885    5.75586
       H    -4.87273  -19.10986   -0.12908
       O    -4.67873  -19.34518    0.81914
      H1    -4.64718  -18.56230    1.44174
       H    -0.81015  -15.78391   -1.17533
       O    -1.76030  -15.84644   -1.06274
      H1    -2.06561  -16.73132   -1.26897
       H    -1.30984  -10.41423    3.02500
       O    -2.12406  -10.93476    3.10589
      H1    -2.64670  -10.52694    2.41669
       H    -1.97178  -15.51835    0.95399
       O    -1.91213  -15.94553    1.79478
      H1    -1.82040  -15.14705    2.35318
       H    -1.14478  -19.00716   11.33277
       O    -0.24970  -19.08530   10.97599
      H1    -0.20251  -18.41010   10.21816
       H     0.49943  -16.56384    6.85462
       O     0.72894  -16.70197    5.94497
      H1     0.76454  -15.83024    5.55144
       H    -3.50567  -16.69089    2.26783
       O    -4.16968  -17.34313    2.57174
      H1    -5.05128  -16.87074    2.48039
       H     0.77177  -13.86989   -1.32861
       O     1.11639  -14.59566   -0.71955
      H1     1.78330  -15.12504   -1.23385
       H    -7.09091  -15.71564   -0.77544
       O    -6.62360  -15.07158   -0.22343
      H1    -7.16378  -14.32274   -0.03709
       H    -2.26605  -18.42762   -3.08019
       O    -1.49872  -18.37106   -2.54208
      H1    -1.87717  -19.03903   -1.92822
       H     2.58630  -15.53589   10.27210
       O     2.38844  -16.49356   10.16020
      H1     2.38036  -17.03859   10.94699
       H     1.62673  -11.86468    0.81875
       O     0.84130  -12.28068    1.11013
      H1     0.92543  -13.21295    0.76401
       H     3.44562  -13.78718    4.61206
       O     3.22810  -14.72750    4.60143
      H1     3.09782  -14.86014    3.61452
       H     1.58892  -17.42957    0.21668
       O     2.39824  -18.02412   -0.01788
      H1     3.21363  -17.46168    0.13760
       H     0.35250  -17.90953    4.68989
       O     0.27674  -18.60658    4.08811
      H1     0.83389  -18.41228    3.34902
       H    -1.50817  -12.81862    3.00351
       O    -1.31283  -13.68592    3.30531
      H1    -1.82022  -13.60473    4.14269
       H    -4.36085  -14.04177    8.58336
       O    -4.79194  -13.53378    7.87648
      H1    -4.14835  -13.56299    7.14800
       H    -7.97131  -14.01321    8.08554
       O    -7.46056  -13.77588    7.27310
      H1    -6.55636  -13.79873    7.53326
       H    -0.01572  -15.91049   10.47069
       O    -0.82451  -15.53950   10.82672
      H1    -0.78186  -14.58858   10.83918

