147
frame 11 | Written by MDAnalysis XYZWriter (release 2.4.3)
       H     7.95038  -12.30151    6.76120
       O     8.18939  -13.11023    7.15864
      H1     7.45271  -13.52529    7.68897
       H     6.08620   -8.63785    1.70271
       O     5.87189   -7.92839    1.06144
      H1     5.23755   -8.41363    0.43790
       H     5.39130   -8.19908    9.43850
       O     6.09573   -8.31094   10.08242
      H1     6.58319   -9.07461    9.66498
       H     8.49583   -8.94241    7.10318
       O     8.15330   -8.87051    6.15824
      H1     8.75896   -8.42339    5.60579
       H     7.52281  -11.38014   10.39738
       O     7.45342  -10.80715    9.54880
      H1     8.41767  -10.56840    9.44088
       H     8.73192   -4.28973   12.14556
       O     8.85108   -4.20688   11.16161
      H1     8.29894   -4.90349   10.76440
       H     1.37721  -13.97143    7.52898
       O     1.96983  -13.60910    8.19266
      H1     2.41280  -12.82236    7.79852
       H     5.15332   -8.42025    3.53888
       O     4.75011   -7.61140    3.83350
      H1     5.45808   -6.94550    3.86894
       H     5.24220   -7.95226    5.47505
       O     5.68144   -8.13540    6.30998
      H1     6.58717   -8.42991    6.00947
       H    -0.96342   -5.60303    5.96482
       O    -0.51012   -6.08888    6.66226
      H1    -1.03366   -6.91361    6.69827
       H     1.05380  -11.39450   10.30557
       O     0.84670  -12.26025   10.72991
      H1     0.57347  -12.88830   10.04293
       H     2.90847   -5.62034    1.92117
       O     2.69533   -6.57264    1.74417
      H1     3.40158   -7.10650    2.12341
       H     4.82187   -4.43636    7.83748
       O     5.27975   -3.94715    8.54814
      H1     5.76067   -4.57636    9.11419
       H     2.94032   -3.66742    6.66369
       O     3.33381   -4.56815    6.56508
      H1     2.62246   -5.15171    6.86679
       H     3.12403  -11.60632    3.24466
       O     3.23517  -10.76517    2.79751
      H1     2.36953  -10.31266    3.02269
       H     6.03795   -4.70424    4.44834
       O     6.56777   -5.21409    3.87000
      H1     6.58891   -4.69190    3.06309
       H     0.96936   -7.56377   12.34184
       O     1.25283   -6.74223   12.81405
      H1     1.60069   -6.23787   12.08585
       H    -1.01802  -13.08724    4.71693
       O    -0.57414  -12.45427    5.26185
      H1     0.26736  -12.16432    4.97254
       H    -1.08124   -4.67678    7.76638
       O    -1.31250   -3.77957    7.95903
      H1    -0.66896   -3.22448    7.49111
       H     6.21555  -11.81237    8.81301
       O     5.52807  -12.51868    8.80410
      H1     5.84664  -13.34110    9.18409
       H    -0.32709   -9.75423   12.44551
       O    -0.02731   -9.00064   11.89679
      H1    -0.75194   -8.59363   11.49253
       H     7.01081   -6.66764    6.74806
       O     7.72469   -5.99967    6.78489
      H1     8.54856   -6.45166    6.83573
       H     7.97609  -10.42497    5.42338
       O     7.41748  -11.23680    5.22888
      H1     7.95558  -11.92355    4.79068
       H     6.76253   -6.59757    9.96691
       O     7.07661   -5.69476    9.79475
      H1     7.58933   -5.82036    8.99055
       H    -0.56630  -10.21534    7.37317
       O    -1.23976  -10.93194    7.38919
      H1    -0.95334  -11.55261    6.65900
       H     1.38274   -9.47195   11.02217
       O     2.00454   -9.85914   10.27779
      H1     2.91740   -9.63965   10.59135
       H    -2.01452   -8.51133    5.27676
       O    -1.98634   -8.60175    6.20763
      H1    -1.54965   -9.40950    6.41474
       H     3.12155   -5.01142   11.05341
       O     2.16304   -5.19156   10.77063
      H1     1.66621   -4.50461   11.19890
       H     5.72046  -12.53428    5.69364
       O     4.88072  -12.95173    5.95338
      H1     4.98128  -13.09598    6.89077
       H     8.13728   -6.05773    3.90829
       O     8.93903   -6.65861    4.09082
      H1     9.65000   -6.51000    3.43016
       H     6.37576  -11.79513   12.25100
       O     6.99431  -12.42772   11.85452
      H1     6.47876  -13.19619   11.61082
       H     4.39737   -8.34252    7.61496
       O     3.83363   -8.47432    8.39523
      H1     3.24043   -7.68414    8.32860
       H     4.42571   -3.34153   11.65178
       O     4.75552   -4.23700   11.59059
      H1     5.61592   -4.16987   11.23446
       H     0.91313   -9.03875    9.19936
       O     0.14396   -8.68854    8.72776
      H1    -0.49194   -8.43633    9.36473
       H     5.05050   -6.76712   12.20462
       O     4.88275   -7.16702   13.06376
      H1     4.44928   -8.03121   12.88998
       H     5.17941   -9.44541   11.32883
       O     4.48775   -9.69922   11.99295
      H1     4.10602  -10.53266   11.59430
       H     3.37366   -1.04159    7.72115
       O     3.04953   -1.93767    7.74271
      H1     3.69658   -2.36335    8.33149
       H     3.82163   -4.14104    4.98940
       O     4.31229   -3.58954    4.32357
      H1     4.61438   -2.82954    4.84453
       H     0.80694   -8.86453    6.54953
       O     0.88953   -9.68719    6.06583
      H1     1.61864  -10.18437    6.48846
       H     3.61699  -11.60383    6.61406
       O     2.90392  -11.18801    7.18260
      H1     3.32749  -10.56695    7.77429
       H     4.87701  -10.40082    3.13925
       O     5.89139  -10.30702    3.18966
      H1     6.19902  -10.65427    4.04934
       H     0.84651   -9.81483    4.30965
       O     0.79636   -9.76948    3.30304
      H1     0.14248  -10.42329    3.04994
       H     3.43927  -13.37058    4.69286
       O     2.59919  -12.86632    4.43485
      H1     2.30164  -13.37443    3.66568
       H    10.43576   -6.23887    7.41309
       O    10.12712   -7.17254    7.41868
      H1    10.33965   -7.58111    8.28034
       H     1.01660   -6.81177    8.14819
       O     1.82524   -6.39457    8.37617
      H1     1.72710   -5.77505    9.12304
       H     6.59221   -3.17437    7.50468
       O     7.11724   -3.33225    6.66246
      H1     7.37537   -4.30088    6.62985
       H     2.79241  -12.20055   10.84685
       O     3.74098  -12.12315   10.90816
      H1     4.00957  -12.21559    9.99693
       H    -0.38292   -5.96670    3.50627
       O    -0.32118   -6.47871    2.68541
      H1     0.52683   -6.95114    2.66520
       H    10.02237   -9.99615    9.30715
       O     9.70299   -9.79400    8.43018
      H1    10.24740  -10.39215    7.87515

