147
frame 6 | Written by MDAnalysis XYZWriter (release 2.4.3)
       H    -4.72059  -16.29601   11.10561
       O    -4.50968  -16.14806   10.19711
      H1    -4.26693  -16.99112    9.89067
       H     0.27095  -16.69992    2.27027
       O     1.26916  -16.87167    2.35267
      H1     1.70680  -16.05799    2.61163
       H     1.23630  -13.27995    8.17437
       O     1.65296  -12.71386    8.83270
      H1     2.02844  -11.99108    8.39762
       H     2.44920  -14.47449    1.62394
       O     2.76575  -14.53334    2.54186
      H1     3.69677  -14.93145    2.34186
       H    -6.04559  -17.47590    6.10392
       O    -5.33354  -17.37136    5.51081
      H1    -5.65411  -17.44229    4.62286
       H   -10.49901  -18.60849    5.78569
       O    -9.67385  -18.51301    5.23665
      H1    -9.38997  -19.42081    5.14814
       H    -9.87590  -17.38148    2.12664
       O    -9.24094  -18.04754    2.45615
      H1    -9.59719  -18.27637    3.28722
       H     4.42813  -18.67088    5.15711
       O     4.47735  -19.61914    5.46062
      H1     4.08316  -20.11767    4.66707
       H     2.24555  -15.36406   -0.49550
       O     1.96285  -14.53795   -0.03133
      H1     2.55091  -13.85161   -0.33323
       H    -3.95191  -10.73956    5.54625
       O    -3.56120   -9.94234    5.12911
      H1    -3.36673  -10.06635    4.18838
       H     0.12624  -13.98239    5.97156
       O     0.88379  -14.04041    6.52942
      H1     1.47791  -13.40419    6.10471
       H    -2.78718  -17.04538    7.50458
       O    -2.44025  -16.43050    6.81192
      H1    -2.58952  -16.92341    5.98232
       H    -3.52853  -14.13888   10.27743
       O    -2.75092  -13.63258   10.17657
      H1    -1.85988  -14.13867   10.20650
       H     4.18366  -17.47044    7.23470
       O     4.19728  -17.40150    8.23725
      H1     4.48111  -18.25876    8.56096
       H    -9.87287  -16.64852    5.04099
       O    -9.61602  -15.75290    5.26763
      H1    -9.70396  -15.59834    6.20643
       H     0.02107  -17.95886    9.02036
       O    -0.88174  -17.65022    9.37250
      H1    -0.60529  -16.91106    9.89181
       H    -7.56073  -17.57158    2.89169
       O    -6.71625  -17.16097    2.99348
      H1    -6.66922  -16.48703    2.26639
       H    -5.38472  -12.32498    2.16188
       O    -5.42195  -12.22717    3.12363
      H1    -5.57933  -13.08033    3.51972
       H    -8.16673  -18.58922   10.22058
       O    -8.79674  -18.59597    9.48250
      H1    -8.26309  -18.46476    8.65998
       H    -2.04752  -17.24141    3.90925
       O    -2.39197  -17.95267    4.40377
      H1    -1.64092  -18.54770    4.54010
       H    -3.70856  -18.72314    7.97620
       O    -3.41894  -18.39295    8.88806
      H1    -2.44894  -18.41267    8.93949
       H    -5.26808  -15.14973   -0.37295
       O    -4.78834  -14.80764   -1.15375
      H1    -3.85895  -15.10680   -1.13783
       H     4.52927  -15.88160    4.83524
       O     4.27230  -16.81858    5.08044
      H1     3.54681  -17.02480    4.48303
       H    -3.82971  -15.02347    6.46326
       O    -4.09480  -14.17990    6.02648
      H1    -4.98383  -14.36371    5.72155
       H    -7.21788  -13.94565    4.99048
       O    -6.31213  -14.26151    4.66739
      H1    -6.33176  -15.23564    4.60120
       H    -8.07644  -18.16006    6.35064
       O    -7.45753  -18.14615    7.09871
      H1    -7.33564  -17.27312    7.52189
       H    -1.44650  -15.28514   -0.83097
       O    -1.92677  -16.02226   -0.42579
      H1    -1.62050  -16.68297   -1.02492
       H    -3.32613   -9.55364    2.00024
       O    -3.06119  -10.40203    2.41663
      H1    -3.91318  -10.84632    2.46291
       H    -1.66283  -15.85265    1.50530
       O    -1.42945  -16.13857    2.38541
      H1    -1.13254  -15.34817    2.88215
       H    -0.82196  -16.61178    6.81754
       O     0.16543  -16.62581    6.54175
      H1     0.44968  -15.70294    6.36153
       H    -3.88335  -18.38210    2.99133
       O    -4.50513  -18.88672    2.39390
      H1    -5.37125  -18.56135    2.70206
       H    -5.40105  -11.28293    0.01937
       O    -5.24207  -12.19841    0.39433
      H1    -5.29218  -12.81126   -0.34968
       H    -0.71686  -10.14750    5.98734
       O    -0.04372  -10.73442    5.61645
      H1     0.63447  -10.67651    6.31313
       H    -0.82407  -13.12613   -0.81153
       O    -0.27679  -13.82665   -1.24546
      H1     0.42231  -14.09891   -0.63096
       H    -6.95136  -16.09451    0.35904
       O    -6.67609  -15.42010    0.94438
      H1    -7.36370  -14.73116    0.94759
       H    -1.85798  -18.27705   -2.90862
       O    -1.57450  -18.13094   -1.98028
      H1    -1.58716  -18.99335   -1.59194
       H     3.11226  -16.01598    8.92711
       O     2.98035  -15.45286    9.68206
      H1     3.20148  -14.62135    9.29044
       H    -7.60079  -15.30330    8.27884
       O    -6.78342  -15.66218    8.00276
      H1    -6.22831  -15.65260    8.77813
       H    -0.05014  -11.60719    4.05156
       O    -0.37041  -11.94783    3.20147
      H1    -1.13141  -11.27594    3.01444
       H     3.54569  -12.56014    5.24668
       O     2.74287  -12.58800    4.72165
      H1     2.87624  -13.21105    4.03224
       H     2.18044  -16.95106    0.56303
       O     2.76623  -17.05387   -0.19464
      H1     2.27135  -17.65584   -0.79701
       H     0.35825  -17.68362    5.00294
       O     0.37362  -18.36524    4.33652
      H1     0.72182  -17.93982    3.51973
       H    -0.53782  -13.68308    3.98536
       O    -0.95534  -14.50752    4.37275
      H1    -1.85931  -14.20574    4.47356
       H    -8.01702  -17.70669   -1.77201
       O    -7.29414  -17.11489   -1.51676
      H1    -7.15970  -16.51073   -2.21405
       H    -4.15612  -11.44388    8.13811
       O    -4.37444  -11.67218    7.18346
      H1    -4.00810  -12.53395    6.94529
       H    -6.56029  -13.76426    8.05952
       O    -6.56062  -12.82944    8.23813
      H1    -5.79686  -12.47452    7.75266
       H    -4.66818  -18.72927    5.99079
       O    -4.14756  -19.43916    6.46694
      H1    -3.32838  -19.45397    5.96306
       H    -2.79578  -11.99789   -0.09646
       O    -2.15662  -11.83756   -0.73005
      H1    -1.50926  -11.19548   -0.46903
       H     1.13976  -15.52333    9.96591
       O     0.31040  -15.18957   10.39571
      H1     0.62329  -14.40309   10.89062

