147
frame 7 | Written by MDAnalysis XYZWriter (release 2.4.3)
       H     8.17241  -12.00278    8.26086
       O     8.63674  -12.85203    8.06516
      H1     8.09505  -13.45382    8.57447
       H    15.26301  -10.62013   13.94433
       O    15.30191  -11.27615   14.57956
      H1    14.58538  -10.98877   15.20852
       H    11.99162   -6.28278    9.80214
       O    11.02256   -6.21867    9.93675
      H1    10.84088   -5.41250   10.42716
       H     5.61308   -8.74084   10.01358
       O     5.53368   -9.34905   10.73596
      H1     6.34708   -9.85743   10.66959
       H     9.03961  -14.09476   13.99369
       O     9.67301  -14.66593   14.43221
      H1     9.20404  -15.11746   15.18321
       H     8.97916   -8.84186    6.57844
       O     8.19743   -8.80189    5.96353
      H1     8.46397   -8.31735    5.23735
       H     8.15910  -11.54897   11.13146
       O     7.74998  -11.03267   10.43910
      H1     8.50111  -10.68240    9.98147
       H     5.49309   -7.82024    7.84390
       O     6.22298   -8.02506    8.41318
      H1     6.98408   -8.25702    7.84471
       H    12.85507  -13.57468   15.11523
       O    12.03271  -13.34968   15.59688
      H1    11.34181  -13.96309   15.28853
       H    14.28055   -5.88472   10.39737
       O    13.79289   -6.01844    9.56981
      H1    13.84178   -5.19669    9.02047
       H    11.58280  -11.76927   14.71076
       O    11.19485  -10.95037   14.37697
      H1    11.28842  -11.01031   13.40315
       H    11.88892   -8.60204    6.60136
       O    12.31508   -9.40892    6.93390
      H1    13.10838   -9.07903    7.38463
       H    12.53700  -10.02784   15.90777
       O    13.34777  -10.25771   16.41598
      H1    13.65804   -9.42962   16.74862
       H    14.86225  -12.36108   10.03052
       O    14.05993  -11.98467    9.70339
      H1    13.38372  -12.56711   10.12952
       H     8.18594   -9.45080   13.08603
       O     8.45489   -8.50217   13.00409
      H1     8.86219   -8.48973   12.12390
       H    12.55900  -11.11184    4.47674
       O    11.68200  -10.73983    4.63441
      H1    11.72713   -9.96860    5.24085
       H    10.40932   -7.09725   14.81458
       O    10.64289   -7.96050   14.45891
      H1     9.89895   -8.19470   13.83967
       H    10.45633  -10.21430   15.74355
       O    10.29187   -9.92979   16.67927
      H1    10.57948  -10.66269   17.24684
       H    14.43311   -7.68525    9.00817
       O    14.49859   -8.56057    8.53284
      H1    14.02941   -9.10190    9.16149
       H     5.94940  -11.76849    9.78706
       O     5.23998  -12.34410    9.43061
      H1     5.64931  -13.23263    9.54353
       H     7.09270   -4.64189    9.29260
       O     7.64390   -5.49634    9.27796
      H1     7.03088   -6.22149    9.07339
       H    13.70876   -7.20176   15.31217
       O    13.30065   -7.70938   14.55251
      H1    12.31705   -7.72132   14.55053
       H     7.19127  -10.28978    5.45293
       O     6.66734  -11.05829    5.15565
      H1     6.75815  -11.16611    4.21327
       H     7.21740   -7.18799   11.92921
       O     6.86564   -6.32734   11.67666
      H1     7.43491   -6.03716   10.94903
       H    11.64161  -11.27678   10.45429
       O    11.62109  -10.73046   11.23474
      H1    12.56492  -10.54980   11.35331
       H     4.74411   -9.85952   14.61163
       O     5.05288   -9.25815   13.89450
      H1     4.51013   -9.40624   13.12704
       H    10.56944   -9.33692   10.92248
       O     9.98202   -8.55890   10.72129
      H1    10.52631   -7.82650   10.48086
       H    10.62602   -6.09702   16.66929
       O    10.14107   -5.38909   16.20648
      H1    10.98773   -5.03306   15.85871
       H    14.08688  -13.10405    7.40916
       O    13.73926  -13.75716    6.79940
      H1    14.11858  -14.56068    7.12763
       H    14.37840  -14.48492   14.31463
       O    14.01412  -13.66516   13.93991
      H1    14.60446  -12.96378   14.29389
       H     7.88551  -12.02598   13.30140
       O     8.41482  -12.71032   12.77864
      H1     7.69944  -13.39581   12.61706
       H    11.95320  -14.58845    9.33471
       O    11.81228  -14.92808    8.42869
      H1    12.48259  -14.38247    7.91704
       H    10.90495   -6.50043    6.19466
       O    11.34781   -7.13947    5.56584
      H1    12.13878   -6.80180    5.15671
       H    14.50272   -6.92745   12.67436
       O    14.93916   -6.11445   12.40278
      H1    14.70236   -5.46001   13.07282
       H     7.65161   -5.02271   13.63793
       O     7.78359   -4.06584   13.69357
      H1     6.95666   -3.69632   14.00607
       H     4.47708   -4.44729   11.86352
       O     4.46422   -5.41677   11.67196
      H1     5.40619   -5.80408   11.74458
       H    13.86382   -8.93355   13.15305
       O    14.11632   -9.47947   12.41352
      H1    15.01263   -9.20136   12.15673
       H    12.56971  -14.62616   11.23929
       O    12.39334  -13.71248   10.96574
      H1    11.97009  -13.40921   11.81298
       H    10.74576   -4.60155    7.37764
       O    10.10157   -5.33821    7.23220
      H1    10.06711   -5.81633    8.06618
       H     7.48042   -8.29171   17.25526
       O     7.69071   -9.09010   16.79402
      H1     8.55953   -9.45121   17.02430
       H     7.58760  -10.33950   15.21542
       O     7.38601  -10.68145   14.34355
      H1     6.51956  -10.25039   14.18623
       H    15.49776   -8.01223    7.20872
       O    15.95891   -7.64932    6.38845
      H1    16.88975   -7.46555    6.53795
       H     7.06325  -15.22723    8.61428
       O     6.89355  -14.63823    9.30296
      H1     7.44258  -14.93614   10.06594
       H     6.22717   -6.59824   14.66827
       O     7.07547   -6.53163   15.12755
      H1     7.37375   -7.42518   15.07753
       H    16.65562   -9.87040   10.80781
       O    16.52621   -8.84867   10.76622
      H1    15.79352   -8.68822   10.09295
       H     9.63183   -3.46392   10.68801
       O    10.58218   -3.66545   10.73967
      H1    10.85782   -3.55562   11.64911
       H     9.67986   -3.45112   13.67284
       O    10.52690   -3.01081   13.50463
      H1    10.27052   -2.09351   13.23318
       H    10.51215  -11.97100    7.82712
       O    11.12079  -11.48241    8.40575
      H1    11.66417  -10.93981    7.88036
       H     9.67354   -9.06195    9.19356
       O     9.25517   -9.61168    8.47570
      H1     9.84155  -10.40618    8.46861

