147
frame 9 | Written by MDAnalysis XYZWriter (release 2.4.3)
       H     8.21353   -3.28183   17.55514
       O     8.78622   -3.55997   16.84189
      H1     9.58312   -2.99965   17.00143
       H     5.55101    2.38803   11.31386
       O     5.09419    1.65798   11.71348
      H1     5.35219    1.76002   12.65638
       H     8.07193    2.86519   16.46924
       O     7.58295    2.03709   16.44393
      H1     6.82905    2.18746   15.89579
       H     4.61671   -2.28568   13.03092
       O     5.25466   -2.65980   12.41810
      H1     5.02507   -2.41370   11.52827
       H     7.76283   -3.94240   12.88760
       O     8.12517   -4.07941   12.00345
      H1     7.48117   -4.57578   11.47955
       H     3.97176   -3.87900    8.83615
       O     4.58537   -3.49241    9.49661
      H1     5.27518   -4.16746    9.68035
       H     1.66590   -1.62585   18.86652
       O     1.99421   -1.81525   17.97207
      H1     2.18329   -2.75177   17.81053
       H     1.73566   -6.95431   13.92271
       O     2.30221   -6.53211   14.60366
      H1     3.19668   -6.56069   14.34327
       H     4.66329   -4.76607   16.25964
       O     5.15304   -3.87670   16.17483
      H1     6.04654   -3.99630   15.79535
       H     1.43941    4.78296   14.52156
       O     2.21225    4.46319   14.06484
      H1     2.63052    3.84787   14.69123
       H     5.08288   -0.77439   17.32382
       O     5.16914   -1.05667   16.41251
      H1     5.19339   -2.00035   16.38614
       H     0.82282    1.12587   16.72968
       O     1.10360    2.05338   16.62173
      H1     0.58583    2.61382   17.18322
       H     2.68067    0.64329    9.75836
       O     2.31915   -0.18799   10.02555
      H1     3.17939   -0.72614   10.14946
       H     0.01988   -3.14499   14.30538
       O    -0.86269   -3.16884   13.86973
      H1    -1.20053   -2.23680   14.06250
       H    -0.05799   -2.15770   10.93421
       O     0.59649   -2.51854   11.57286
      H1     0.12590   -2.89438   12.28787
       H     2.74684   -1.04071   13.84540
       O     3.57915   -1.49598   14.15886
      H1     4.03285   -0.96896   14.81833
       H     2.27146   -4.79934   10.94218
       O     1.38719   -4.89030   10.63027
      H1     0.98438   -4.02440   10.72559
       H     9.49337   -0.08270   12.98565
       O     9.69236   -0.52891   12.15492
      H1     8.81260   -0.55119   11.67112
       H     0.54206   -0.77387   15.34434
       O     0.33698   -0.45010   16.24342
      H1     0.77876   -1.13474   16.77635
       H     6.14425    0.90442   14.15990
       O     5.71722    1.78319   14.30641
      H1     4.96442    1.61822   14.87771
       H     4.82052    2.28396   19.21520
       O     5.37128    2.52298   18.51781
      H1     6.00519    1.78078   18.31649
       H     6.12542    3.64629   13.84116
       O     6.78190    4.36659   13.88877
      H1     6.47298    5.12201   13.32928
       H     6.91073   -4.32449   19.53440
       O     6.53628   -4.20559   18.66879
      H1     5.61869   -3.94068   18.83674
       H     8.53799   -1.63843    9.78600
       O     7.92068   -1.53759   10.52185
      H1     7.98197   -2.45161   10.90606
       H     6.31874   -0.79860   10.34531
       O     5.47819   -0.49272    9.99873
      H1     5.18317    0.15094   10.66842
       H    10.53963   -0.94698   16.67622
       O    11.31974   -1.47272   16.46739
      H1    11.19283   -1.43568   15.46223
       H     7.64823   -4.72887   14.66719
       O     7.51640   -3.76093   14.60653
      H1     7.96412   -3.43198   15.37965
       H     4.30582   -4.25824   12.40021
       O     3.99845   -5.04540   11.95143
      H1     4.33228   -4.90360   11.01843
       H     4.78360   -6.25267   13.38823
       O     4.99176   -6.60861   14.27022
      H1     4.93431   -7.60157   14.21511
       H     3.11995   -6.89075   16.66831
       O     3.63793   -6.19884   17.14368
      H1     4.52310   -6.55398   17.32140
       H     2.90812    2.23086   16.63426
       O     3.79891    2.51441   16.39311
      H1     4.37093    2.43537   17.25088
       H     2.45564   -3.29686   14.94377
       O     1.72656   -3.77782   15.31939
      H1     1.90313   -4.66253   14.94908
       H     5.90686   -1.06216   13.20427
       O     6.69875   -0.58277   13.55235
      H1     7.27515   -1.21110   13.92789
       H     8.78334   -5.25892   19.52973
       O     8.77490   -5.97014   18.83476
      H1     8.81123   -5.48268   18.02202
       H     7.68721    4.61135   18.17332
       O     6.84441    5.00556   18.53179
      H1     6.28321    4.22509   18.69819
       H    -0.70870   -5.45009   16.02319
       O    -0.20217   -6.09779   16.55592
      H1     0.66562   -5.95677   16.19639
       H    12.05801   -3.41462   16.86516
       O    12.60262   -4.10540   16.59666
      H1    13.16241   -4.20647   17.40354
       H     7.08278   -8.32589   18.05950
       O     7.74560   -8.96958   18.20263
      H1     8.60464   -8.52208   18.14107
       H     1.03450   -1.00846   12.50685
       O     1.06580   -0.58376   13.39280
      H1     1.31688    0.33796   13.22697
       H     9.95603    1.88280   19.47258
       O    10.25092    1.74936   18.56979
      H1    11.21000    1.58296   18.65916
       H     9.25620    0.50434   17.90024
       O     8.92901   -0.42579   17.72083
      H1     8.16765   -0.30457   17.19242
       H     4.11866   -0.34254   18.80405
       O     5.05070   -0.25664   19.01553
      H1     5.11619   -0.71765   19.87295
       H     6.79434   -6.48576   14.68234
       O     7.65155   -6.35193   15.12775
      H1     8.37001   -6.81214   14.61931
       H    -1.41742    2.07936   15.35077
       O    -1.81085    1.28825   15.78611
      H1    -1.05327    0.69784   16.11975
       H     2.74452    1.94493   11.88049
       O     1.86810    2.02767   12.27442
      H1     1.75105    2.97749   12.25641
       H     9.26193    0.69975   15.19220
       O     9.99629    0.59988   14.59267
      H1    10.56204    1.37881   14.72965
       H     6.58982   -6.58006   16.74662
       O     6.16142   -6.88252   17.56065
      H1     6.29545   -6.21741   18.21652
       H     2.37118   -5.23992   17.80108
       O     1.67973   -4.80978   18.36083
      H1     0.86515   -5.33818   18.25435
       H     9.29793   -3.19710   14.04175
       O     9.97436   -2.48304   14.06819
      H1     9.96709   -2.09279   13.17936

