147
frame 5 | Written by MDAnalysis XYZWriter (release 2.4.3)
       H    -4.44198   -8.71411    5.65286
       O    -5.15812   -8.10700    5.50309
      H1    -5.79696   -8.19422    6.20634
       H    -2.25580   -8.27370    0.71709
       O    -3.05568   -8.65392    1.11814
      H1    -3.51173   -7.92875    1.60087
       H     0.58507   -8.13024    1.77858
       O     1.12469   -8.80732    1.30874
      H1     1.93439   -8.27343    1.10390
       H    -4.70531   -7.61271   -1.15268
       O    -4.97627   -8.50357   -0.82977
      H1    -4.42834   -8.47779   -0.05084
       H    -7.87585   -9.52854    2.18310
       O    -8.47201   -9.88571    1.53680
      H1    -8.34967   -9.34829    0.71382
       H    -0.11472  -12.82832    6.48935
       O    -0.11662  -11.92087    6.84759
      H1     0.77781  -11.64056    6.83682
       H    -0.49318   -5.39679    5.82898
       O     0.11088   -6.10136    5.72953
      H1    -0.30191   -6.77884    6.30865
       H     1.72934  -14.08877    2.24661
       O     2.41367  -14.46667    2.80945
      H1     2.93427  -14.87399    2.15791
       H    -5.72284  -17.52021    5.81071
       O    -4.91893  -16.91241    5.69731
      H1    -5.27079  -16.06809    5.41733
       H     1.05784   -5.88089    2.46770
       O     0.32561   -6.40204    2.84252
      H1     0.34138   -6.30910    3.80597
       H    -6.99425  -12.40556    5.62497
       O    -6.74559  -12.18603    4.70393
      H1    -7.60005  -12.45399    4.20472
       H     2.09469  -11.04566    3.85937
       O     2.51841  -10.51517    3.19848
      H1     1.82181  -10.13326    2.68601
       H    -9.06204  -13.91142    4.13396
       O    -8.98940  -13.14828    3.56219
      H1    -8.78191  -13.44537    2.64481
       H    -3.48851  -10.33418    6.91298
       O    -3.05089   -9.74053    6.28136
      H1    -3.00767  -10.15135    5.38885
       H     0.21866  -14.49778    4.87919
       O     0.86469  -14.48084    5.60507
      H1     1.71024  -14.11777    5.24774
       H    -5.25706   -6.03516    5.35297
       O    -5.24778   -5.09009    5.13453
      H1    -5.99279   -4.84821    4.60355
       H    -3.24350  -16.26016    7.14068
       O    -2.30053  -16.17814    7.28119
      H1    -2.09144  -16.86570    6.66359
       H    -7.60217  -16.73866    2.75876
       O    -6.73789  -16.28053    2.75785
      H1    -6.62557  -15.95908    1.80626
       H    -5.34069  -12.19726    1.20866
       O    -5.29624  -12.40564    2.15708
      H1    -5.13294  -13.32685    2.26928
       H    -0.59100   -6.69221   -0.16122
       O    -0.87089   -7.62684   -0.19751
      H1    -0.09443   -8.12400    0.21622
       H    -2.33637  -17.13285    4.50041
       O    -1.98243  -17.77870    5.17139
      H1    -1.02835  -17.85829    4.95714
       H    -8.03256  -10.43048    5.49615
       O    -8.62612   -9.70457    5.42737
      H1    -8.96803   -9.59294    4.57050
       H     1.13799  -10.28735    9.70247
       O     0.30155  -10.58315    9.46796
      H1     0.39757  -11.26753    8.78555
       H    -5.13628  -15.10709   -0.41336
       O    -4.23716  -14.85299   -0.56693
      H1    -3.69626  -15.65659   -0.56856
       H    -1.13472   -9.31228    6.98293
       O    -0.30724   -8.76522    7.08108
      H1     0.03763   -8.93013    7.96950
       H    -2.91210  -14.71238    6.56913
       O    -3.28147  -13.90016    6.15188
      H1    -3.99723  -14.13531    5.51889
       H    -5.98761  -13.75040    4.27905
       O    -5.49286  -14.57157    4.31698
      H1    -6.00370  -15.16859    3.67704
       H    -8.33624   -8.37073   -1.07264
       O    -7.90321   -7.94885   -0.24460
      H1    -7.00679   -8.25199   -0.39555
       H     0.59357   -9.56408   -1.72098
       O     0.91675  -10.15884   -1.02613
      H1     1.21556   -9.67267   -0.23634
       H    -3.60754  -10.31164    3.01703
       O    -3.34216  -10.99974    3.67339
      H1    -3.96255  -11.72759    3.55603
       H    -2.08609  -15.89111    1.06636
       O    -2.07188  -16.06981    2.03891
      H1    -1.90379  -15.22038    2.53601
       H    -2.51311   -7.46962    8.97149
       O    -3.16060   -8.17275    8.91304
      H1    -3.01487   -8.51860    8.02753
       H    -3.45644  -17.25827    2.46841
       O    -4.19153  -17.84668    2.41279
      H1    -4.91571  -17.28823    2.71282
       H    -4.61917  -11.69085   -1.45599
       O    -5.27242  -12.22513   -0.93732
      H1    -4.89511  -13.11515   -0.85353
       H    -0.13409   -9.56747    5.18069
       O    -0.06872   -9.33314    4.22488
      H1     0.54257   -8.58082    4.27061
       H    -0.92261  -13.24719   -1.05292
       O    -0.57929  -13.99820   -1.60907
      H1     0.22746  -14.34396   -1.23011
       H    -7.54059  -15.67874   -0.74968
       O    -7.12589  -15.15873   -0.04301
      H1    -7.60994  -14.34697    0.15474
       H    -3.24584   -4.71403    5.15454
       O    -2.32086   -4.57861    5.34934
      H1    -2.21774   -4.65234    6.33883
       H    -3.68677   -6.16246    2.57157
       O    -4.44772   -6.75906    2.43176
      H1    -4.62457   -6.97041    3.34214
       H    -8.43989  -11.82736    1.31494
       O    -8.64122  -12.60830    0.80971
      H1    -9.24422  -12.21653    0.13902
       H    -0.37188  -11.16146    3.34620
       O    -0.22041  -11.89415    2.75747
      H1    -0.82233  -11.66295    2.01246
       H    -0.77084  -13.31964    3.49214
       O    -1.22693  -14.13692    3.78032
      H1    -1.92715  -13.96646    4.46044
       H    -3.63433  -11.85358    8.88857
       O    -3.92302  -11.64048    7.97677
      H1    -3.50593  -12.34271    7.46660
       H    -6.92252  -13.53036    7.51502
       O    -6.71110  -12.60852    7.38091
      H1    -5.76184  -12.68032    7.47447
       H    -6.29774  -10.56129    3.72483
       O    -6.33495   -9.65671    3.36905
      H1    -5.99966   -9.19311    4.13848
       H    -7.53835   -7.85246    8.20500
       O    -7.31144   -7.79503    7.21630
      H1    -7.97698   -8.33185    6.76455
       H    -3.19793   -4.12582    2.35420
       O    -2.59241   -4.82450    2.52543
      H1    -1.99393   -4.60389    3.22970
       H    -3.90895   -9.69539   -1.58740
       O    -3.46110  -10.43695   -2.10590
      H1    -2.71566  -10.70383   -1.54639
       H    -2.17110  -10.58983    0.18063
       O    -1.53695  -11.20118   -0.31121
      H1    -0.70757  -10.68778   -0.39045

