147
frame 8 | Written by MDAnalysis XYZWriter (release 2.4.3)
       H   -14.44420   15.02578    3.69250
       O   -14.03667   14.93784    4.55747
      H1   -14.41645   15.63772    5.15503
       H   -17.94932   11.77119   -8.41119
       O   -18.14007   10.78555   -8.44867
      H1   -19.08825   10.81643   -8.56525
       H   -16.28317   14.09055    2.69707
       O   -16.48071   13.27773    3.19352
      H1   -15.65329   12.87651    3.15313
       H   -13.22645   17.85797   -0.73354
       O   -13.31051   18.75119   -0.35140
      H1   -12.51394   19.27148   -0.50473
       H   -11.92009   16.57018   -2.23531
       O   -12.59041   16.45755   -1.54032
      H1   -12.26493   15.74455   -0.97143
       H   -17.05143   11.46253   -4.85585
       O   -17.69598   12.04180   -4.46653
      H1   -18.49796   11.56581   -4.52109
       H   -14.67282   12.75938   -9.87211
       O   -14.49421   13.15084   -8.94431
      H1   -15.38799   13.49699   -8.72127
       H   -15.52327   15.47608  -11.88832
       O   -16.33253   15.86439  -12.25266
      H1   -16.46216   16.75187  -11.93051
       H   -18.23407   15.42761    2.86795
       O   -19.08669   15.85911    2.88683
      H1   -19.67436   15.17455    3.28365
       H   -13.75644   15.42097   -2.41017
       O   -14.55520   14.99947   -2.78859
      H1   -15.10500   15.75847   -2.94128
       H   -16.33225   18.72434   -6.19841
       O   -16.13089   19.63705   -5.91563
      H1   -16.90909   20.18190   -6.30221
       H   -13.33374   18.46704    3.26585
       O   -13.99048   18.63305    3.97424
      H1   -14.21228   17.86055    4.47814
       H   -17.87143   18.25860    1.72384
       O   -16.93884   18.50766    2.05025
      H1   -17.11615   19.31970    2.49752
       H   -13.84017   14.37556   -4.63343
       O   -14.15163   14.01934   -5.46256
      H1   -13.46473   14.15789   -6.11306
       H   -11.95331   10.85838   -6.30240
       O   -11.61672   10.45189   -7.12493
      H1   -12.34200   10.48105   -7.70103
       H   -12.28920   17.87371    1.37988
       O   -11.86839   18.25862    2.18111
      H1   -11.25243   17.57419    2.57254
       H   -10.98691   15.61927   -3.76065
       O   -11.23911   16.58610   -3.87947
      H1   -10.45380   17.12719   -3.60885
       H   -16.50918   17.81890   -3.07683
       O   -16.87333   17.03181   -3.47350
      H1   -17.65506   17.27342   -3.95771
       H   -19.21934   16.86904    1.21796
       O   -18.86185   17.59504    0.68644
      H1   -19.61330   18.08286    0.29279
       H   -17.03946   17.37325    4.48947
       O   -17.75335   17.21508    5.09360
      H1   -18.37278   16.79178    4.50885
       H   -15.23503   15.33227   -1.22670
       O   -15.51414   15.31773   -0.33441
      H1   -16.41084   15.53067   -0.38546
       H   -16.17725   18.28164   -0.38458
       O   -16.09226   18.72800   -1.19635
      H1   -15.19764   18.96217   -1.29978
       H   -13.02485   13.22033    2.22005
       O   -13.86737   12.73373    2.29162
      H1   -14.03912   12.48438    1.33903
       H   -14.24755   13.11214   -2.43133
       O   -13.92535   12.35011   -1.95877
      H1   -14.63957   11.72114   -2.03067
       H    -9.02765   16.60716   -7.37401
       O    -9.76819   16.77006   -7.99809
      H1   -10.54234   17.04570   -7.41332
       H   -19.00986    9.59847   -5.51986
       O   -19.56231   10.10872   -4.95113
      H1   -19.94362    9.41859   -4.40363
       H   -16.71691    9.56697   -4.00467
       O   -16.68026    8.73502   -3.53038
      H1   -17.38761    8.23636   -4.04618
       H   -17.68310   14.32058   -9.41985
       O   -17.25719   13.79160   -8.76377
      H1   -17.44561   14.12626   -7.80003
       H   -13.34298   18.04136  -10.16087
       O   -13.63025   17.17664  -10.45595
      H1   -12.85328   16.57757  -10.65815
       H   -11.79800   11.46467   -3.84273
       O   -12.14025   11.66347   -4.71770
      H1   -13.09996   11.60069   -4.67294
       H   -14.62193   10.01937    1.44567
       O   -14.38856   10.41811    0.54916
      H1   -15.20082   10.50965    0.07058
       H   -16.07465   16.98058    2.18306
       O   -15.96354   15.99595    2.25010
      H1   -15.67587   15.73864    1.34624
       H   -16.00655   19.01315  -11.67830
       O   -16.83613   18.52139  -11.52182
      H1   -17.62648   18.97401  -11.81406
       H   -18.05311   14.10438   -1.84894
       O   -18.18261   13.17025   -2.00193
      H1   -18.12683   13.00916   -3.03414
       H   -12.90752   17.36564   -6.58115
       O   -11.97270   17.43887   -6.40613
      H1   -11.77475   17.00276   -5.55557
       H   -19.07271   17.00962   -5.41694
       O   -18.34252   17.00715   -6.06954
      H1   -17.86304   16.21520   -5.89011
       H   -16.58628   18.24104   -9.78785
       O   -16.60447   18.65289   -8.92546
      H1   -16.59439   19.64403   -9.13190
       H   -12.75244   13.71252   -8.25250
       O   -12.24093   14.04458   -7.48360
      H1   -11.90021   14.91561   -7.71313
       H   -18.33098   17.99551   -8.72774
       O   -19.26461   17.72005   -8.52880
      H1   -19.21221   17.42211   -7.58195
       H   -14.99480   17.54821   -7.97896
       O   -14.32423   16.97473   -7.55750
      H1   -13.96100   16.47845   -8.24441
       H   -11.00130   12.06091   -0.73005
       O   -11.74829   12.31471   -0.21552
      H1   -12.54052   12.47717   -0.77057
       H   -14.82747   11.05757   -6.22002
       O   -14.89839   11.29961   -5.30015
      H1   -14.63846   12.21318   -5.33784
       H   -18.62031   15.10715  -12.70618
       O   -19.45191   15.26310  -12.27119
      H1   -20.13191   15.11858  -12.99473
       H   -17.76740   16.35236   -2.16786
       O   -18.19691   15.86125   -1.42228
      H1   -18.39421   16.56993   -0.79991
       H   -17.00278   10.56956   -1.58355
       O   -16.33710   11.25822   -1.37900
      H1   -16.80635   12.09690   -1.48503
       H   -11.38150   13.46909   -4.14988
       O   -10.85629   13.83089   -3.44831
      H1    -9.97221   13.44768   -3.57214
       H   -11.37511   13.68417    0.49334
       O   -11.33644   14.52324    1.03833
      H1   -10.47094   14.84235    1.12097
       H   -14.95352   10.09034   -8.24814
       O   -14.38929   10.73019   -7.81796
      H1   -14.43045   11.58832   -8.26019
       H   -16.05354   14.41329   -5.93988
       O   -16.98721   14.40837   -6.00494
      H1   -17.25409   13.57840   -5.47917

