147
frame 11 | Written by MDAnalysis XYZWriter (release 2.4.3)
       H    -8.28579  -18.00980   -9.54562
       O    -8.59546  -18.62287  -10.28218
      H1    -7.91798  -18.38796  -10.95712
       H    -4.64135  -16.50431   -9.99689
       O    -5.46201  -16.50401  -10.56395
      H1    -5.54959  -17.42088  -10.85208
       H    -9.64785  -18.50085   -4.01962
       O    -9.29469  -18.13073   -4.80485
      H1    -8.45556  -18.53210   -5.04898
       H    -8.59519  -12.01001  -10.56473
       O    -8.44383  -11.47007  -11.32329
      H1    -7.51055  -11.18381  -11.15857
       H   -10.78216  -17.43084  -11.91167
       O   -10.81170  -17.21024  -10.94036
      H1    -9.97645  -17.61194  -10.58886
       H   -10.83307  -10.07514  -12.46013
       O   -11.45177  -10.27282  -13.14297
      H1   -10.99770  -10.29210  -14.02498
       H   -10.77974  -13.95889  -11.04743
       O   -10.72548  -14.48117  -10.23781
      H1   -10.55673  -15.41078  -10.54571
       H   -11.68150   -9.18264   -6.32607
       O   -12.33334   -9.12341   -5.57656
      H1   -12.74454   -8.20556   -5.62879
       H    -9.35103  -13.79794  -16.20540
       O    -9.31344  -13.03125  -15.66191
      H1    -8.72881  -13.29939  -14.91446
       H    -6.63974   -6.85551   -9.12086
       O    -7.25168   -7.52140   -9.50258
      H1    -7.94565   -7.05335  -10.01087
       H    -9.26447  -13.72667   -9.44286
       O    -8.72802  -13.08443   -9.01476
      H1    -9.18488  -12.84615   -8.18651
       H    -8.83083  -16.75323   -7.96668
       O    -8.02666  -16.72488   -8.49846
      H1    -8.12461  -16.22344   -9.38449
       H   -10.14552  -12.65049   -1.64251
       O    -9.74865  -11.88846   -1.15661
      H1   -10.27140  -11.12176   -1.44216
       H    -5.04314  -17.44854   -7.72421
       O    -5.67176  -18.16091   -7.86368
      H1    -6.46679  -17.66973   -7.99712
       H    -4.75587  -11.97453   -4.42835
       O    -4.84833  -12.95343   -4.55382
      H1    -5.63210  -13.14606   -5.13731
       H    -5.61582   -9.56103  -11.60418
       O    -5.92079   -9.94129  -10.74430
      H1    -6.55041   -9.25382  -10.46674
       H    -6.76168  -13.23865  -12.98578
       O    -7.63271  -13.43972  -13.39917
      H1    -8.22845  -13.12791  -12.70354
       H   -15.04161  -11.09018  -10.64120
       O   -15.80066  -10.65937  -11.12727
      H1   -15.68399  -11.04632  -11.99751
       H    -9.36746  -10.03830  -11.29358
       O    -9.79868   -9.22071  -11.04358
      H1    -9.34527   -8.43950  -11.44441
       H   -13.93187  -10.01855   -2.85682
       O   -13.07046  -10.36667   -3.15888
      H1   -12.99197  -10.16061   -4.09083
       H    -7.51675   -8.73608   -8.31509
       O    -7.51085   -9.40635   -7.57984
      H1    -7.05198   -8.94786   -6.86712
       H   -10.16386  -11.48103   -6.99498
       O    -9.66916  -12.27673   -6.78117
      H1   -10.39141  -12.98147   -6.86793
       H    -8.92735  -16.42728   -4.84754
       O    -8.79652  -15.45234   -4.79990
      H1    -9.39312  -15.10593   -4.15688
       H    -4.09729  -14.83273   -7.17895
       O    -4.63781  -15.66617   -7.06288
      H1    -5.55737  -15.30522   -6.84599
       H    -6.61092  -18.12473   -4.07510
       O    -6.77262  -17.65033   -3.27929
      H1    -6.65058  -16.72157   -3.44627
       H   -10.78851   -9.04041   -8.09664
       O   -10.23874   -9.46560   -7.45435
      H1    -9.35129   -9.48374   -7.75149
       H    -7.21638   -7.48868   -4.71465
       O    -6.58848   -8.17279   -4.97849
      H1    -7.15763   -8.95955   -4.82675
       H    -8.69713  -11.71242   -4.85053
       O    -8.25773  -10.98660   -4.38290
      H1    -7.72298  -11.36203   -3.65896
       H   -10.95163  -12.21246  -12.75663
       O   -10.66461  -13.14488  -12.69313
      H1   -10.82373  -13.52022  -13.58079
       H    -2.00871  -13.50181   -7.51475
       O    -2.66754  -13.99103   -7.92687
      H1    -3.19860  -13.34272   -8.42048
       H   -12.38478  -11.84474   -4.44215
       O   -12.11511  -12.60870   -4.98346
      H1   -12.95147  -13.16008   -4.76018
       H    -5.30746  -14.97544   -3.15733
       O    -6.05981  -14.98250   -2.55931
      H1    -5.70622  -14.91921   -1.66231
       H    -9.51481   -9.51145   -4.09867
       O    -9.94842   -8.65547   -4.13693
      H1   -10.81693   -8.76951   -4.56311
       H    -7.93576  -12.24260   -2.15592
       O    -6.95865  -12.19919   -2.34521
      H1    -6.62383  -13.08594   -2.63310
       H   -14.84797  -13.55994   -4.62828
       O   -14.19685  -14.10500   -4.16366
      H1   -14.38777  -13.96419   -3.26095
       H    -8.37737  -14.88324  -11.75372
       O    -7.82018  -15.37439  -11.17684
      H1    -7.05555  -15.46872  -11.71153
       H   -11.56431  -14.37414   -8.44355
       O   -11.55504  -14.42812   -7.47159
      H1   -11.09919  -15.30813   -7.19799
       H   -11.27359  -17.82101   -7.69936
       O   -10.66598  -17.19715   -7.36762
      H1   -10.25433  -17.65130   -6.63706
       H   -12.00622   -7.90746   -9.36901
       O   -12.51046   -8.64377   -8.93309
      H1   -12.46881   -9.37758   -9.54709
       H   -13.25036  -12.36858   -9.88532
       O   -13.47511  -11.40271   -9.78868
      H1   -13.64143  -11.34136   -8.83363
       H    -7.39440  -14.60240   -5.68029
       O    -6.71545  -13.99692   -6.08509
      H1    -7.08898  -13.44439   -6.76499
       H   -15.56398  -15.76469   -8.20351
       O   -15.17417  -15.70211   -9.07628
      H1   -15.33544  -16.54478   -9.50603
       H    -4.06125   -8.42784   -9.41162
       O    -4.40926   -8.70862   -8.56884
      H1    -4.96072   -9.46319   -8.88333
       H    -6.87600  -11.03566   -7.98805
       O    -6.39218  -11.83200   -8.20286
      H1    -7.08229  -12.40214   -8.51301
       H    -3.68182  -11.77459  -10.07913
       O    -3.93957  -11.91404   -9.12171
      H1    -4.87310  -11.66056   -9.19281
       H   -12.85793  -14.53086  -11.09512
       O   -13.72589  -14.02817  -11.03671
      H1   -14.22156  -14.58586  -10.44589
       H   -14.29828  -12.37516   -7.18158
       O   -13.70282  -11.59031   -7.09939
      H1   -13.03630  -11.86454   -6.42060
       H   -11.00938  -13.58227   -3.61163
       O   -10.33954  -13.79707   -2.91980
      H1   -10.69085  -14.62798   -2.47874
       H   -13.44080  -15.74549   -5.14112
       O   -13.09239  -16.54803   -5.59658
      H1   -12.81565  -16.25358   -6.51237

