147
frame 4 | Written by MDAnalysis XYZWriter (release 2.4.3)
       H   -13.08986    0.91589    3.72894
       O   -13.84550    1.17109    3.16311
      H1   -14.54458    1.55782    3.75956
       H    -8.12674   -5.49321    7.38782
       O    -8.23347   -4.52577    7.35356
      H1    -7.41110   -4.15803    7.63063
       H    -9.58013   -2.73787    2.31516
       O    -8.72360   -2.33574    2.42783
      H1    -8.78816   -1.74862    3.19359
       H    -8.62825    3.63104    6.16404
       O    -8.02247    3.54997    5.40864
      H1    -7.34845    2.88875    5.65323
       H   -10.83774    4.50111    7.21357
       O   -10.21718    3.77072    7.32444
      H1    -9.62641    4.14953    8.02942
       H   -13.34013   -3.66357   -0.47276
       O   -12.40169   -3.54179   -0.62242
      H1   -11.95947   -3.47549    0.21162
       H   -16.14528    3.04843    4.54125
       O   -15.60483    2.68337    5.22338
      H1   -16.13431    2.73875    6.00806
       H    -9.93320   -5.50822    3.04781
       O    -9.79396   -4.99009    3.87677
      H1    -8.83472   -5.06995    4.09409
       H   -11.61274    0.40051    1.99531
       O   -11.24032    0.99547    1.30406
      H1   -10.45262    0.65491    0.92060
       H   -13.85958   -0.58884    2.79172
       O   -13.82251   -1.41053    2.27947
      H1   -14.30028   -2.12066    2.70810
       H   -14.06079   -2.99140    9.25261
       O   -14.79876   -3.61574    9.33905
      H1   -15.46610   -2.95069    9.57279
       H   -11.71003   -1.19909    3.97363
       O   -11.49235   -0.27020    3.99521
      H1   -10.53865   -0.22564    4.25578
       H   -16.13939   -1.28863   -0.02641
       O   -16.76140   -1.09256    0.64261
      H1   -16.26730   -1.21887    1.44789
       H   -12.53949   -3.78204    4.57685
       O   -12.53939   -2.85798    4.91171
      H1   -13.46738   -2.52179    4.83377
       H    -9.78967   -3.63163    6.65394
       O   -10.55929   -3.12156    6.83611
      H1   -11.00993   -2.98259    6.02020
       H    -5.40079    2.21127    0.79821
       O    -5.75303    1.68070    1.59680
      H1    -5.60731    0.70637    1.28628
       H   -13.47703    2.14867   10.30350
       O   -13.30581    1.49817    9.60132
      H1   -14.09957    0.93487    9.66453
       H   -14.42106   -4.49342    2.71635
       O   -15.15818   -4.06371    2.31909
      H1   -15.08442   -4.19694    1.36883
       H    -5.50840   -0.37095    5.85715
       O    -5.19076   -1.27531    5.65089
      H1    -5.81027   -1.72716    5.07053
       H   -12.44304    6.57811    7.27800
       O   -11.70858    6.20829    6.69467
      H1   -12.15611    5.86360    5.89012
       H    -8.49762    2.59223    2.65449
       O    -8.23719    1.68185    2.65813
      H1    -7.32925    1.71672    2.26232
       H   -15.19960    3.95423    2.82595
       O   -16.02298    3.78656    2.35877
      H1   -15.97662    3.04057    1.71745
       H   -13.03772    5.49233    3.41699
       O   -12.93905    6.33874    3.00582
      H1   -12.14186    6.43173    2.36890
       H   -12.90055   -6.33918    3.88422
       O   -13.24724   -5.41795    4.00253
      H1   -13.49327   -5.39921    4.92358
       H   -17.42931   -1.83303    7.42021
       O   -16.75311   -2.00327    8.08001
      H1   -15.92253   -2.10463    7.62963
       H   -10.96769    2.03188    6.93927
       O   -11.62158    1.28347    6.97469
      H1   -12.18274    1.40172    7.73484
       H   -12.95507   -1.58274    7.85154
       O   -13.33462   -0.92070    7.23730
      H1   -12.70741   -0.23437    6.98968
       H   -10.65306    0.90679   -1.80583
       O   -11.48501    1.14554   -2.26046
      H1   -11.23571    1.57817   -3.11896
       H   -10.17734   -6.31388    5.42495
       O   -10.11417   -7.06266    6.02684
      H1    -9.88715   -7.87505    5.47551
       H    -8.86526   -0.31327    5.41303
       O    -8.84110   -0.38637    4.47953
      H1    -8.49398    0.35881    3.97159
       H   -10.06352    4.05775    1.36918
       O   -10.86006    3.82313    0.83437
      H1   -11.05968    2.89319    1.01757
       H   -11.17444   -4.12378    2.28661
       O   -11.31369   -3.28187    1.85185
      H1   -12.00759   -2.85018    2.32797
       H   -11.02004   -6.19615    0.98315
       O   -10.23299   -5.92713    1.50075
      H1    -9.43092   -6.14453    0.93558
       H    -5.94546    1.59888    6.88154
       O    -5.86851    1.38766    5.95928
      H1    -4.99385    1.76155    5.79648
       H    -7.91093   -2.11064   -0.49555
       O    -7.78628   -1.41463    0.15161
      H1    -8.13668   -1.87166    0.91500
       H    -5.91222   -3.34913    3.22576
       O    -6.53213   -3.00974    3.92292
      H1    -7.40312   -2.91515    3.55432
       H   -18.23580   -0.22278    4.00538
       O   -17.67550   -0.98583    4.31743
      H1   -17.92743   -1.78266    3.82939
       H   -13.97592    3.77564    5.73215
       O   -13.72094    4.68156    5.45169
      H1   -14.05279    5.18892    6.23468
       H   -12.82318    1.51878   -1.13813
       O   -13.33635    1.70950   -0.30688
      H1   -12.67399    1.46744    0.34881
       H   -10.34787    0.06346    7.58574
       O    -9.66359   -0.63664    7.79795
      H1   -10.02545   -1.56842    7.82693
       H    -8.99465    5.19128    3.04549
       O    -8.68980    4.43304    2.48379
      H1    -7.73698    4.55422    2.47113
       H   -12.27754   -0.38479   -2.24508
       O   -12.84570   -1.23342   -2.31569
      H1   -12.59973   -1.75304   -1.50930
       H   -16.33376    0.77125    0.72917
       O   -16.15475    1.69754    0.57055
      H1   -15.32176    1.81381    0.15808
       H    -8.43379   -0.55665    9.28140
       O    -7.60424   -0.65726    9.77264
      H1    -7.72546   -0.22690   10.69067
       H   -14.25392   -6.24472    6.73052
       O   -14.78116   -5.44102    6.46995
      H1   -14.66565   -4.70685    7.05623
       H   -16.18896   -1.79115    5.63756
       O   -15.32866   -2.20188    5.73117
      H1   -14.78589   -1.50001    6.16683
       H    -9.47810    3.84947   -0.32960
       O    -8.57692    3.54579   -0.67660
      H1    -8.33618    4.13233   -1.45951
       H    -8.80117   -0.20274   -0.15469
       O    -9.15535    0.62536   -0.49350
      H1    -8.68627    1.28854    0.01230
       H   -11.55624   -2.37077    9.66510
       O   -12.18544   -2.64093    9.02144
      H1   -11.72852   -2.97876    8.24006

