147
frame 4 | Written by MDAnalysis XYZWriter (release 2.4.3)
       H     6.43184   -8.19608  -12.51589
       O     6.10103   -9.01277  -12.24093
      H1     6.90208   -9.47939  -11.91278
       H     6.54182   -5.99464  -13.05240
       O     7.22102   -6.64093  -12.78947
      H1     7.95940   -6.11485  -12.39425
       H     5.96811   -4.99550  -14.80084
       O     6.54815   -4.27217  -14.41114
      H1     6.07739   -3.46247  -14.36304
       H    10.30287   -8.62408  -16.09478
       O    10.36159   -8.88181  -17.00744
      H1    10.26423   -8.01640  -17.45774
       H    10.83076   -9.53974  -11.30469
       O    10.27676   -8.75563  -11.35652
      H1    10.90959   -8.09001  -11.75125
       H     9.23594  -15.57535  -17.65323
       O    10.08855  -15.55184  -17.17219
      H1    10.80063  -15.62717  -17.76781
       H     5.21223  -16.05260  -15.85183
       O     5.53829  -15.46371  -15.15639
      H1     6.30487  -15.85150  -14.70920
       H     6.77957  -13.51183  -12.15187
       O     5.98438  -13.15903  -12.59432
      H1     6.17927  -12.22555  -12.49371
       H     5.10886  -12.18151  -14.93450
       O     5.28947  -12.80671  -15.64296
      H1     5.46200  -13.58586  -15.11643
       H     2.35485   -4.46329  -19.65808
       O     2.35954   -5.29322  -19.12083
      H1     2.80519   -5.87758  -19.78054
       H    11.06021   -2.36590  -19.90485
       O    10.85117   -2.57401  -18.97835
      H1    11.45802   -3.27132  -18.68633
       H     8.13678   -0.82778  -19.17418
       O     7.93163   -0.86182  -18.22795
      H1     8.47561   -1.60980  -17.92350
       H    14.68073   -5.01301  -15.39706
       O    14.52040   -5.05383  -16.31984
      H1    13.54408   -4.96618  -16.30288
       H     9.93088  -12.88470  -18.32920
       O     9.74620  -12.04604  -18.72335
      H1     8.77989  -12.04296  -18.77587
       H     5.16891   -5.12196  -17.86791
       O     5.90408   -5.72508  -17.83917
      H1     6.76713   -5.24920  -17.75207
       H    11.93708   -4.69750  -14.45678
       O    11.97573   -5.32669  -15.21005
      H1    11.43055   -6.04901  -14.90999
       H     8.57345  -10.34426  -13.47489
       O     9.00611  -10.05890  -14.30945
      H1     8.36710  -10.05811  -14.96753
       H     1.05203   -9.94590  -16.22889
       O     0.57638   -9.10389  -16.13204
      H1     1.26770   -8.56563  -15.79733
       H    12.25802   -9.88264  -17.09212
       O    12.95824   -9.95208  -17.74618
      H1    12.62601   -9.39596  -18.49992
       H    14.34869  -10.63441  -18.72416
       O    15.13509  -10.84935  -19.27348
      H1    15.54532   -9.99917  -19.41683
       H    12.20845  -14.41848  -19.25955
       O    12.41818  -15.16986  -18.67384
      H1    13.25559  -14.98688  -18.24741
       H     4.43875   -8.40681  -16.44139
       O     5.06836   -8.17677  -17.10279
      H1     5.23803   -7.18673  -17.19608
       H     4.92397   -8.77155  -18.69643
       O     4.55633   -8.98604  -19.56233
      H1     5.02920   -9.73957  -19.86783
       H     3.52561  -12.80626  -18.59927
       O     4.03930  -13.47265  -18.07604
      H1     4.52706  -13.10032  -17.36101
       H     2.32626  -11.90233  -18.07736
       O     2.29214  -11.83935  -19.06279
      H1     2.08032  -10.89105  -19.31570
       H     5.07486  -10.02132  -13.42215
       O     4.55924  -10.61440  -13.98762
      H1     3.88712  -10.96650  -13.35148
       H     6.75433   -8.86640  -16.71014
       O     7.61437   -9.31663  -16.57036
      H1     8.31168   -8.87675  -17.04682
       H    11.31117  -11.59959  -10.62967
       O    11.79503  -11.13857  -11.31548
      H1    11.86745  -11.83968  -12.00660
       H    14.00449  -10.24764  -13.91441
       O    14.01140   -9.49732  -13.28111
      H1    13.68287   -9.90782  -12.47188
       H    12.80605  -12.22561  -14.88163
       O    13.36759  -12.41699  -14.13003
      H1    13.92012  -13.21488  -14.28730
       H     9.46013   -2.28144  -15.40690
       O     8.68421   -2.65526  -15.92782
      H1     8.20039   -3.32643  -15.49806
       H    12.68689   -6.66396  -12.80166
       O    12.21737   -7.43938  -13.08030
      H1    12.97268   -8.08340  -13.22947
       H    10.56681  -14.64423  -14.18481
       O    10.22709  -15.51564  -14.51198
      H1    10.20759  -15.41231  -15.50635
       H     9.27829   -6.04108  -18.77375
       O    10.04716   -6.64737  -18.94558
      H1     9.95558   -6.86069  -19.86815
       H     3.73522   -7.76589  -14.67790
       O     3.34682   -8.56761  -15.11449
      H1     3.75299   -9.28185  -14.63015
       H     3.73536   -5.72740  -13.56254
       O     4.21948   -6.09007  -14.29868
      H1     3.89154   -5.52016  -15.01325
       H    10.38299   -7.50700  -13.92031
       O     9.81001   -7.22299  -14.68033
      H1     8.95702   -7.59273  -14.40127
       H     7.34277  -10.55958  -17.63848
       O     7.03653  -11.40895  -18.08189
      H1     6.56088  -11.79286  -17.36066
       H    14.09746  -10.50702  -16.43880
       O    14.83437  -10.27818  -15.81922
      H1    15.04754   -9.31236  -15.85702
       H    16.32074   -7.41137  -16.07601
       O    15.62329   -7.75835  -16.63840
      H1    14.97085   -7.06866  -16.57051
       H    12.02200  -14.33028  -12.07825
       O    11.42574  -13.67308  -12.45196
      H1    11.85838  -13.22458  -13.18661
       H     9.22897  -13.46315  -12.41221
       O     8.62074  -13.35641  -11.67105
      H1     9.12252  -13.73136  -10.91116
       H     2.92872   -3.74030  -16.38588
       O     2.98299   -4.69479  -16.39244
      H1     3.00154   -4.90747  -17.33518
       H    10.40900  -10.85000  -14.98232
       O    10.96920  -11.42043  -15.51869
      H1    10.75522  -11.13966  -16.38533
       H    11.24494   -5.35089  -18.26712
       O    12.09447   -4.86845  -18.13166
      H1    11.96874   -4.78759  -17.15596
       H     8.93732  -10.13732  -11.70079
       O     8.26018  -10.75794  -11.96413
      H1     8.52651  -11.64789  -11.74583
       H     9.75930   -4.94803  -12.11491
       O     9.26612   -5.27686  -11.31765
      H1     8.86799   -4.49420  -10.95803
       H     5.15022   -6.66425  -10.12767
       O     5.02572   -7.63466  -10.03408
      H1     5.37113   -7.97727  -10.91909
       H     8.27843   -3.74006  -17.40322
       O     8.13702   -4.45039  -18.05878
      H1     8.30208   -4.10496  -18.94872

