147
frame 10 | Written by MDAnalysis XYZWriter (release 2.4.3)
       H     2.87633   15.92508  -11.70056
       O     2.20539   15.40901  -11.17892
      H1     1.50344   16.07523  -10.98469
       H    -2.56933   16.90715   -1.30213
       O    -2.90654   17.09071   -0.38394
      H1    -2.50816   17.88493    0.00994
       H    -4.18075   13.52840  -10.43675
       O    -4.17443   12.60774  -10.70737
      H1    -3.96685   12.56811  -11.64483
       H     0.43037   14.03032   -1.49812
       O    -0.38191   13.66587   -1.89812
      H1    -0.96378   14.44577   -1.97443
       H    -2.75304   17.11257  -13.19622
       O    -3.14555   17.90512  -13.56435
      H1    -2.46579   18.10331  -14.20200
       H    -5.06420   17.68385  -14.53333
       O    -5.92868   18.07582  -14.68390
      H1    -6.06887   18.47368  -13.79673
       H     3.32927   14.80008   -5.25236
       O     4.14767   15.20777   -4.92386
      H1     4.60290   15.56618   -5.69265
       H     2.49222   18.29691   -3.10958
       O     2.40409   18.30934   -2.09232
      H1     1.81465   19.02036   -1.86079
       H     5.42597   16.23432  -11.13703
       O     4.67601   16.55888  -11.70778
      H1     5.03665   17.19374  -12.31197
       H     0.93129   15.55012  -13.65008
       O     0.84292   15.53595  -14.62660
      H1     0.89633   14.61185  -14.86809
       H    -1.80526   18.45192   -3.92706
       O    -0.86323   18.30681   -3.88120
      H1    -0.61579   18.17691   -4.78939
       H     0.62420   12.25643  -11.73535
       O    -0.34659   12.26578  -11.50938
      H1    -0.66258   11.37882  -11.40361
       H     2.42797   13.85564  -12.09963
       O     2.40153   12.91660  -12.28477
      H1     2.19421   12.74307  -13.23292
       H    -1.79936   18.42509   -9.31674
       O    -1.72461   18.05073   -8.43978
      H1    -2.57281   17.60207   -8.36879
       H    -2.02216   15.41419   -3.55814
       O    -1.90492   15.91988   -2.76351
      H1    -1.39122   16.70707   -2.98319
       H     0.11704   18.30540  -14.47369
       O    -0.63089   18.45803  -15.05513
      H1    -0.84991   17.61613  -15.41823
       H    -2.52052   12.94586  -13.52507
       O    -1.67731   13.47626  -13.45873
      H1    -1.06888   13.03451  -12.79690
       H    -6.60840   14.11070  -10.88440
       O    -7.17501   14.74528  -10.45533
      H1    -6.70064   14.98930   -9.67560
       H    -8.46196   16.97690  -12.21838
       O    -8.37110   17.55533  -11.42871
      H1    -8.32244   17.07370  -10.61846
       H     0.67448   14.35217   -6.05636
       O     0.24822   14.84033   -6.77066
      H1     0.40414   14.40015   -7.58017
       H    -5.45378   10.95905   -8.56917
       O    -4.99548   11.48670   -7.88033
      H1    -4.82081   12.32331   -8.26430
       H     1.63229   17.91203   -9.91313
       O     1.13922   17.84686  -10.74462
      H1     0.29808   18.22523  -10.57506
       H     1.93501   10.66887   -5.32471
       O     1.82915   11.18530   -6.13468
      H1     0.88739   11.34370   -5.96315
       H     2.64904   18.07639  -13.76964
       O     1.66967   18.27637  -13.48944
      H1     1.73078   17.99125  -12.52613
       H    -7.84960   18.02194   -6.93761
       O    -8.11506   17.13612   -7.11863
      H1    -7.37515   16.49982   -7.31523
       H    -5.77672   19.32246  -11.40912
       O    -6.40315   19.13663  -12.16970
      H1    -7.11498   18.55128  -11.87134
       H     4.35090   16.55772   -7.77938
       O     5.06772   16.07131   -7.44109
      H1     5.67957   16.82952   -7.10133
       H    -2.14030    9.75800  -10.64942
       O    -2.28589   10.48151  -11.22787
      H1    -2.82133   11.17029  -10.69650
       H    -3.79317   15.72318   -5.43006
       O    -4.66434   15.94611   -5.14229
      H1    -4.62271   15.95600   -4.17764
       H    -4.69020   15.89608   -9.60219
       O    -4.19399   15.16614   -9.89089
      H1    -3.62743   15.39360  -10.64059
       H    -8.54668   17.03123   -5.47056
       O    -8.99193   16.92368   -4.59479
      H1    -8.71050   17.76790   -4.14471
       H    -1.61611   11.06218   -6.35377
       O    -1.17649   11.89905   -6.25923
      H1    -1.42560   12.33112   -7.11610
       H    -6.38676   14.50176   -7.43851
       O    -6.10615   15.36354   -7.78157
      H1    -5.44720   15.61125   -7.10743
       H     3.26564   17.27227   -4.96644
       O     3.30567   18.14049   -4.60644
      H1     4.17937   18.55670   -4.61758
       H    -1.71542   18.07557  -11.74481
       O    -1.48682   18.74812  -11.08479
      H1    -1.86485   19.55738  -11.44972
       H    -7.16198   13.98778  -13.23221
       O    -6.19433   14.21332  -13.33826
      H1    -6.21598   15.20161  -13.35019
       H     0.65055   13.23402   -9.73701
       O     1.30117   13.56556   -9.08890
      H1     1.98156   13.87339   -9.76508
       H     2.00516   17.84357   -7.50763
       O     2.65749   17.86466   -8.22322
      H1     3.12443   18.60797   -7.94335
       H    -4.43298   17.26241   -1.62448
       O    -4.97555   17.46567   -2.38542
      H1    -5.70598   16.88350   -2.56161
       H     1.30946   13.63248   -3.85563
       O     1.71812   13.65079   -4.71126
      H1     2.32950   12.89204   -4.70775
       H    -3.76583   19.23471   -4.68079
       O    -3.40434   18.49433   -5.20951
      H1    -3.96292   17.74661   -4.96709
       H    -2.52908   14.70822   -5.73267
       O    -2.33580   15.36105   -6.44910
      H1    -1.42241   15.13805   -6.65786
       H    -2.21260   15.29241  -12.49973
       O    -2.57961   15.84753  -11.76794
      H1    -2.00013   15.68089  -11.02478
       H    -3.34722   13.59134   -3.80794
       O    -2.50140   13.76090   -4.28356
      H1    -1.96118   12.94127   -4.28482
       H     2.10901   10.81568   -7.94219
       O     2.27493   10.82703   -8.88923
      H1     2.07634   11.73878   -9.06177
       H    -1.87056   12.86017   -9.68084
       O    -2.01908   13.20758   -8.75782
      H1    -2.52580   14.03269   -8.90779
       H    -0.79560   14.92261   -9.11648
       O    -0.85844   15.67126   -9.71143
      H1    -0.92809   16.42738   -9.13138
       H    -4.92795   18.81112   -8.62606
       O    -4.53666   17.98619   -8.26041
      H1    -4.16041   18.32243   -7.46088
       H     0.47668   16.43419   -6.39882
       O     0.51115   17.43568   -6.44036
      H1    -0.08349   17.69785   -7.15259

