147
frame 7 | Written by MDAnalysis XYZWriter (release 2.4.3)
       H    -3.86500    2.90800   -1.84552
       O    -3.54868    2.57122   -2.69609
      H1    -4.35037    2.53127   -3.27734
       H    -5.91084    5.63883   -7.47789
       O    -5.51172    4.89236   -7.03758
      H1    -6.21234    4.55405   -6.46941
       H   -11.49823    7.23925   -4.81830
       O   -10.61684    6.99734   -4.79642
      H1   -10.43070    7.05699   -3.85429
       H    -7.57280    6.97348   -7.88672
       O    -7.87659    6.72655   -7.03836
      H1    -8.72918    6.28555   -7.07210
       H    -6.50037    3.23364   -4.58422
       O    -6.21397    2.94790   -3.67505
      H1    -6.71341    2.08824   -3.48128
       H   -10.73134    4.07820   -4.35782
       O   -10.04512    4.40139   -4.95713
      H1   -10.23458    5.32754   -5.12569
       H    -7.81886    9.72248   -6.26537
       O    -7.11967    9.15338   -5.83669
      H1    -7.53452    8.27373   -6.01980
       H    -0.48519    8.98383   -4.88695
       O    -0.76746    8.72641   -5.78435
      H1    -0.62553    9.44525   -6.38807
       H     0.32501    4.39110   -6.11791
       O    -0.01182    4.24707   -7.00220
      H1     0.76688    3.80727   -7.49505
       H    -0.12700    2.56763   -5.32107
       O     0.41569    1.77578   -5.54054
      H1    -0.19203    1.32448   -6.18918
       H    -2.30555    8.36623   -0.49352
       O    -3.17361    8.03655   -0.13439
      H1    -3.59480    7.44110   -0.78758
       H    -7.53685    2.62944   -6.33396
       O    -7.59676    3.55944   -5.97645
      H1    -8.45094    3.67255   -5.56607
       H    -4.27573    7.37736   -4.90206
       O    -4.49252    8.23645   -4.56116
      H1    -5.45368    8.38474   -4.78590
       H    -4.08391    9.48425   -3.29966
       O    -3.77052   10.09713   -2.63047
      H1    -4.37152   10.04602   -1.88250
       H    -3.44760    7.65181  -10.75568
       O    -4.03827    6.98291  -11.07944
      H1    -4.33451    7.27676  -11.92729
       H    -7.50720   11.62280   -4.03332
       O    -7.23469   12.55795   -4.17308
      H1    -7.04745   12.62012   -5.12346
       H    -6.63122    5.33427    1.20215
       O    -7.01694    5.02255    0.35062
      H1    -7.88942    4.67492    0.52813
       H    -4.52666    6.36147   -2.82241
       O    -4.78492    6.29213   -1.92762
      H1    -4.65038    5.35564   -1.69269
       H    -2.39967    6.73206    0.90637
       O    -2.58352    5.84789    1.21669
      H1    -1.96743    5.68522    1.96052
       H    -0.91908    6.57022   -1.67935
       O    -0.40301    5.90772   -2.14343
      H1    -0.72267    5.10429   -1.71337
       H    -7.61143    8.20395    1.34784
       O    -8.22227    8.09517    0.56372
      H1    -7.65086    7.89461   -0.17308
       H    -7.23905    3.58710   -9.15895
       O    -6.30115    3.36487   -8.99964
      H1    -6.10529    3.82968   -8.16087
       H    -6.21648   10.85004   -8.97546
       O    -5.50028   11.38942   -8.43667
      H1    -5.44037   12.21994   -8.92229
       H    -4.38898    9.09195    1.09793
       O    -4.43777    9.34201    1.99506
      H1    -4.75120   10.25975    1.88479
       H    -0.66890    6.01104   -7.94398
       O    -0.63606    6.96792   -8.09336
      H1    -0.83969    7.32780   -7.20753
       H    -1.29834   11.72284   -1.07221
       O    -1.43393   11.67839   -1.96997
      H1    -2.20663   11.09366   -2.13136
       H    -4.28603   11.77354   -3.01795
       O    -4.61094   12.69033   -3.05062
      H1    -5.56450   12.56758   -3.40709
       H    -1.15371   10.83397   -8.11689
       O    -0.38197   10.64815   -7.55026
      H1     0.31653   10.47225   -8.19791
       H    -4.20268    5.09787   -5.98891
       O    -3.58840    5.45917   -5.29155
      H1    -2.85497    4.83998   -5.11585
       H    -6.61230   10.56754   -0.31563
       O    -5.79404   10.71863   -0.71934
      H1    -5.59617   11.63062   -0.58100
       H    -1.43267    8.05757   -9.05754
       O    -1.99523    8.64148   -9.67881
      H1    -2.71245    9.04745   -9.14766
       H    -3.19897    4.00561  -11.36981
       O    -2.56103    4.66878  -11.05422
      H1    -3.01961    5.44159  -10.74944
       H    -4.30953   10.15063   -7.46546
       O    -4.04533    9.16417   -7.35719
      H1    -3.70381    9.07434   -6.48172
       H     2.50887    6.41774   -4.18757
       O     2.27115    5.82846   -3.47788
      H1     1.37866    6.16231   -3.25720
       H    -0.34125    9.15654   -0.19113
       O    -0.60418    8.47771   -0.81846
      H1    -0.47179    8.97130   -1.65948
       H    -7.09211    4.79601   -1.41686
       O    -7.46583    4.63933   -2.30012
      H1    -6.99568    3.92371   -2.75405
       H    -5.48470    7.33405   -9.69747
       O    -5.95947    7.71658   -8.93379
      H1    -5.25651    8.21493   -8.43036
       H   -11.32155    9.79372   -5.78687
       O   -10.35682    9.63836   -5.89263
      H1   -10.27205    8.72601   -5.48424
       H    -6.12908   12.32414   -7.18228
       O    -6.65604   12.95766   -6.72711
      H1    -7.54776   13.01003   -7.12443
       H    -7.37175    8.94392   -9.90444
       O    -7.51564    9.92605   -9.94286
      H1    -8.33704   10.08671   -9.41778
       H    -5.49078    4.16528    0.11030
       O    -4.64923    3.85408   -0.25719
      H1    -4.07874    3.94838    0.49034
       H    -2.73373   13.49601   -3.85306
       O    -2.10227   14.02388   -4.43548
      H1    -1.58251   14.50295   -3.81254
       H    -1.57691    3.82198   -8.32145
       O    -1.53398    3.22937   -9.08066
      H1    -1.68411    3.80828   -9.83448
       H    -7.84366    7.44670   -2.22302
       O    -7.12911    8.00466   -1.85912
      H1    -6.42925    7.30271   -1.91516
       H    -3.12889   12.55597   -9.59200
       O    -2.52693   12.05159   -9.02431
      H1    -2.32948   12.75456   -8.35854
       H    -8.92668    5.94029   -2.23586
       O    -9.48422    6.70861   -2.20663
      H1   -10.03726    6.60997   -1.37281
       H    -2.03972    3.50286   -4.01583
       O    -1.47231    4.24149   -4.34585
      H1    -1.52436    5.00726   -3.74003
       H     0.86407    9.60017   -3.18601
       O    -0.07788    9.65632   -3.34312
      H1    -0.30224   10.46957   -2.78696
       H    -7.80586    9.52710   -2.86484
       O    -8.33501   10.00019   -3.49101
      H1    -8.13760    9.60107   -4.31929

