147
frame 12 | Written by MDAnalysis XYZWriter (release 2.4.3)
       H     9.03508   -9.26426  -13.68777
       O     8.29415   -9.64860  -13.20690
      H1     8.60979  -10.59365  -13.04095
       H     6.92862   -5.67700  -14.21250
       O     7.79917   -5.48312  -13.80276
      H1     7.72731   -5.89607  -12.93726
       H    15.35728   -9.21502  -18.24958
       O    15.19535   -8.52068  -17.56940
      H1    15.90803   -7.90148  -17.71718
       H    12.01752  -10.54447  -11.89750
       O    11.42903  -10.45701  -11.08966
      H1    11.67017   -9.55008  -10.74113
       H    13.78597  -10.16956   -8.01044
       O    13.42370   -9.80831   -7.23887
      H1    14.22952   -9.54490   -6.73597
       H     7.49760   -8.57739  -11.81878
       O     7.16793   -8.37135  -10.92854
      H1     7.59223   -7.48444  -10.83320
       H    17.52731   -2.74501  -10.04945
       O    17.85753   -3.56151  -10.47487
      H1    18.39263   -4.00024   -9.79741
       H    15.24128   -5.32220  -12.98359
       O    15.05020   -4.71827  -13.73425
      H1    14.09575   -4.48202  -13.71595
       H    20.21673   -5.85799  -14.43366
       O    19.76680   -5.07367  -14.70802
      H1    18.85368   -5.30288  -14.89878
       H    13.16683   -7.36420  -17.61005
       O    12.32140   -7.71666  -17.85258
      H1    11.56360   -7.11346  -17.80936
       H     9.59134   -8.88139  -16.36438
       O     9.87320   -8.48948  -15.53791
      H1     9.67320   -7.56119  -15.50609
       H     9.06693   -6.31975   -8.39425
       O     8.37976   -6.17604   -7.75572
      H1     7.79892   -5.50551   -8.13630
       H    10.68285   -3.79392  -10.98179
       O    10.56807   -4.37454  -11.74662
      H1    10.50380   -3.75646  -12.43269
       H    16.13539   -3.09184  -12.76572
       O    16.40993   -2.22937  -13.05751
      H1    16.33389   -2.35076  -14.04410
       H    17.29967   -5.64381  -17.77170
       O    17.12461   -5.93753  -16.85958
      H1    16.20937   -5.57568  -16.65241
       H    12.83190  -11.31892  -10.09966
       O    13.55064  -11.88774   -9.79289
      H1    13.29161  -12.75436  -10.15652
       H    11.84129   -8.40166  -15.14509
       O    12.73566   -8.36070  -14.84705
      H1    13.25801   -8.26329  -15.63353
       H    10.00355   -2.04110  -13.29556
       O    10.54617   -2.67503  -13.87458
      H1    11.41308   -2.38065  -14.03725
       H     9.66469   -3.76573   -7.33193
       O    10.54885   -3.84294   -7.58630
      H1    10.80131   -4.80174   -7.64954
       H    13.90728   -1.32794  -11.77500
       O    13.92589   -0.98477  -10.78316
      H1    13.70666   -1.79466  -10.32922
       H     8.73943  -11.84349   -8.89941
       O     9.53899  -12.26207   -8.59309
      H1     9.75617  -12.74881   -9.38898
       H    18.66036   -7.83753  -15.00223
       O    17.84574   -7.82526  -14.46206
      H1    18.21647   -7.75256  -13.56114
       H    11.88534   -5.39041   -5.53732
       O    11.96463   -6.22311   -5.98803
      H1    12.90988   -6.38077   -6.09540
       H    16.27317  -10.65378   -8.22090
       O    16.16494   -9.71971   -8.51365
      H1    16.90153   -9.15716   -8.13449
       H    15.35817   -2.91050  -16.36378
       O    15.75597   -2.11061  -15.94693
      H1    16.52814   -1.85569  -16.49671
       H    15.44527   -7.86357   -4.58096
       O    15.53962   -8.23598   -5.47158
      H1    15.25979   -7.58768   -6.09103
       H    11.00240   -7.57201   -8.42524
       O    10.86219   -6.75095   -8.94842
      H1    11.13440   -7.10753   -9.81543
       H    12.44395  -14.80866  -11.07349
       O    12.33042  -13.88283  -11.40045
      H1    12.17339  -13.96305  -12.35439
       H    12.98117   -5.72574   -9.23830
       O    13.83193   -5.20098   -9.23697
      H1    13.52068   -4.24894   -9.15377
       H    13.39367   -2.54741   -7.24591
       O    13.75800   -2.11760   -8.00599
      H1    13.23519   -1.25329   -7.86058
       H    15.03429   -9.83695  -11.31124
       O    15.57240   -9.13881  -11.00737
      H1    15.83122   -9.33447  -10.11534
       H    10.53994  -12.47845  -13.97360
       O    11.07585  -12.33615  -14.79261
      H1    11.78349  -11.68775  -14.60181
       H    10.78597   -2.63574   -8.94543
       O    10.87192   -2.36818   -9.90042
      H1    11.12764   -1.42782   -9.88687
       H    15.00984   -7.68387  -11.51213
       O    14.60036   -6.81706  -11.69525
      H1    14.55760   -6.37377  -10.84446
       H    11.72731   -5.06847  -12.95840
       O    12.10333   -5.42762  -13.74877
      H1    12.26676   -6.34718  -13.61719
       H    18.46938   -8.73340  -11.52516
       O    18.59080   -7.81500  -11.56771
      H1    18.06837   -7.51964  -10.82528
       H    10.73597   -5.50341  -14.87600
       O     9.91557   -5.67256  -15.37500
      H1     9.20981   -5.78307  -14.69297
       H    12.03282   -8.41280  -12.65918
       O    12.18584   -7.71841  -11.93622
      H1    13.15702   -7.38462  -12.08890
       H    13.83572  -11.10141  -13.46372
       O    12.98198  -10.60311  -13.56156
      H1    13.23230   -9.83493  -14.11365
       H    17.25373   -9.14068  -15.33570
       O    17.04018   -9.70409  -16.09655
      H1    16.27187   -9.34698  -16.58224
       H    14.71627   -2.12359  -13.26707
       O    13.75449   -1.84490  -13.30144
      H1    13.76431   -0.96841  -13.71264
       H    18.95926  -11.01457  -11.88153
       O    18.34200  -10.68566  -11.22637
      H1    17.44522  -10.70739  -11.55713
       H    11.77252   -9.67490   -7.33231
       O    10.78706   -9.54018   -7.45329
      H1    10.44533  -10.35441   -7.89348
       H    12.18307   -9.45120  -18.27475
       O    12.24669  -10.32185  -18.70312
      H1    11.50162  -10.89234  -18.38823
       H     8.94189   -5.20811  -11.26194
       O     8.11507   -5.66034  -11.03413
      H1     7.75084   -5.21814  -10.26925
       H    16.42808   -5.65022   -6.73127
       O    15.81254   -6.22912   -7.19705
      H1    15.49936   -5.62315   -7.90413
       H    16.11242  -11.96054  -14.04191
       O    15.76473  -11.14344  -13.71156
      H1    15.95028  -10.56716  -14.47227
       H    13.60166   -4.42812  -16.47661
       O    14.52910   -4.59567  -16.39939
      H1    14.79578   -4.77025  -15.43694
       H     9.79905   -6.07577  -17.08937
       O     9.73380   -6.43126  -18.00986
      H1     9.99252   -5.61975  -18.52033

