147
frame 8 | Written by MDAnalysis XYZWriter (release 2.4.3)
       H    -2.78534   -8.21639   -0.21272
       O    -3.26388   -8.60495    0.53157
      H1    -3.28755   -7.84471    1.21177
       H    -4.91224   -7.26157   -1.57921
       O    -5.16747   -8.16989   -1.23345
      H1    -4.56037   -8.37907   -0.48096
       H    -7.67816  -10.15696    1.56206
       O    -7.83552  -11.00717    1.10475
      H1    -7.60084  -10.86604    0.22936
       H    -4.49960   -2.63291   -7.45211
       O    -4.00802   -1.84315   -7.51118
      H1    -4.33609   -1.46939   -8.34083
       H    -1.05769   -7.91490   -3.03580
       O    -0.53692   -8.44405   -3.71025
      H1    -1.25710   -8.66773   -4.34704
       H    -0.79346   -2.45372   -3.91901
       O    -1.70692   -2.29593   -3.67463
      H1    -1.66102   -1.76303   -2.88084
       H    -4.85698   -0.95506   -5.94477
       O    -5.08137   -0.33298   -5.23387
      H1    -4.42091    0.35895   -5.19847
       H    -9.05114   -1.72913    2.27672
       O    -8.07782   -1.55401    2.17668
      H1    -7.82813   -0.70297    2.67045
       H    -2.40825   -4.20937   -4.38132
       O    -2.69933   -4.59634   -5.25925
      H1    -2.09994   -4.15075   -5.90451
       H    -5.47808   -2.69999   -3.48574
       O    -4.57437   -3.15816   -3.53670
      H1    -3.95911   -2.59854   -4.02143
       H    -9.71805   -8.84994    1.31554
       O   -10.45790   -8.65929    1.93769
      H1   -10.92941   -9.51714    1.97104
       H   -12.62394   -3.66474   -0.98120
       O   -12.05702   -3.13521   -1.50207
      H1   -11.40399   -2.82607   -0.87903
       H   -10.93783   -7.76763   -5.32525
       O   -11.21629   -7.51258   -4.40114
      H1   -11.63666   -6.62637   -4.40065
       H    -9.66899   -5.70445   -4.40148
       O    -8.75004   -5.37551   -4.38975
      H1    -8.46534   -5.48339   -5.27926
       H    -8.24046   -5.36301   -8.09857
       O    -7.84503   -5.45683   -7.22944
      H1    -6.94579   -5.68234   -7.35827
       H    -5.03878   -7.51663    5.02813
       O    -4.51859   -6.76931    4.77145
      H1    -5.06305   -6.39600    4.02598
       H    -8.18486   -6.76936    0.12940
       O    -8.09351   -5.94639    0.67444
      H1    -7.59944   -6.15394    1.44715
       H    -1.64905   -6.26290   -0.94800
       O    -1.41744   -7.17087   -1.20719
      H1    -0.65482   -7.29009   -0.71526
       H    -7.82339   -7.97419   -8.99683
       O    -7.74107   -8.23201   -8.04068
      H1    -7.57634   -7.46141   -7.52520
       H    -4.99788   -0.60834   -1.02310
       O    -5.21739   -0.81824   -0.12681
      H1    -6.08709   -1.33857   -0.18778
       H    -8.92766    1.06548   -2.96502
       O    -7.97966    1.09874   -2.95258
      H1    -7.74418    0.20177   -2.74445
       H   -11.53846   -4.35426   -4.67742
       O   -11.92877   -4.73607   -3.90887
      H1   -11.80346   -4.11761   -3.21290
       H    -6.58935   -8.25492   -4.12484
       O    -6.19527   -8.82672   -4.82421
      H1    -6.55988   -9.66927   -4.56742
       H    -8.44788   -8.45333   -1.44493
       O    -7.98328   -8.37865   -0.52683
      H1    -7.02463   -8.35999   -0.67871
       H    -8.56694  -10.95953   -4.19257
       O    -7.76614  -10.81714   -3.67761
      H1    -7.77211  -11.50871   -3.05423
       H    -4.82819   -6.07043   -8.69957
       O    -5.24107   -6.49736   -7.95147
      H1    -4.55385   -6.82970   -7.31516
       H    -4.88751   -4.89708   -3.15252
       O    -5.34525   -5.57659   -2.61707
      H1    -6.04729   -5.09976   -2.13571
       H   -10.61834   -1.16200   -4.48661
       O   -10.07913   -1.03497   -5.27105
      H1    -9.65268   -1.87348   -5.56734
       H   -10.66702   -3.77025    1.04435
       O   -10.61175   -2.83309    0.75517
      H1   -11.37419   -2.44719    1.22813
       H   -11.44164   -6.24391    0.99832
       O   -10.83084   -5.61545    1.38311
      H1    -9.92393   -5.84720    1.10660
       H    -6.42708   -0.97473   -4.13366
       O    -6.93916   -1.59532   -3.57351
      H1    -7.66447   -1.73838   -4.20422
       H    -8.89025   -9.52749   -3.21673
       O    -9.34938   -8.80820   -2.80855
      H1    -9.68447   -8.23702   -3.51888
       H    -7.29968   -3.00489   -0.75497
       O    -7.38669   -2.11513   -0.34380
      H1    -7.51902   -2.17867    0.57777
       H    -5.74968   -5.30981    2.36345
       O    -6.34270   -5.83649    2.92889
      H1    -6.87195   -5.30106    3.48717
       H    -7.39505   -3.22815   -6.26262
       O    -8.12712   -2.64413   -6.54832
      H1    -7.82310   -2.19734   -7.28902
       H    -4.38232   -7.14368   -5.32152
       O    -3.60573   -7.11467   -5.88179
      H1    -3.06702   -6.44421   -5.48236
       H    -2.34310   -6.42018    2.33179
       O    -3.24567   -6.77508    2.42408
      H1    -3.35240   -6.99180    3.35710
       H    -1.71000   -4.26022   -0.52078
       O    -2.51373   -4.72235   -0.70504
      H1    -2.88583   -4.43092   -1.51615
       H    -7.91567   -4.74372   -2.25366
       O    -7.38524   -4.38723   -1.52554
      H1    -7.65132   -4.93095   -0.76554
       H    -5.60524   -9.05047    3.08172
       O    -6.39629   -8.78154    2.61412
      H1    -6.19692   -8.17974    1.91716
       H    -3.53311   -1.95647    2.38717
       O    -3.17064   -1.88870    1.53119
      H1    -3.86245   -1.42724    1.08842
       H   -10.85658   -9.04758   -1.59264
       O   -11.47997   -9.61665   -1.14346
      H1   -12.04912   -9.97812   -1.79692
       H    -2.90361   -9.82597   -4.69722
       O    -2.49902   -9.56486   -5.52755
      H1    -2.91223   -8.67108   -5.57371
       H    -3.94736   -9.43154   -2.60560
       O    -3.62348  -10.15627   -3.17034
      H1    -3.00219  -10.75383   -2.64677
       H    -3.63266    0.27581   -3.03474
       O    -4.12587    0.67550   -2.28336
      H1    -4.08837    1.63266   -2.53694
       H   -10.75394   -5.06805   -7.44322
       O   -10.68746   -4.32073   -6.81997
      H1    -9.79349   -3.92769   -6.89549
       H    -9.20988   -1.17547   -0.17793
       O    -9.50668   -0.25979   -0.12125
      H1    -8.73146    0.28607   -0.04195
       H    -4.72750   -4.67131   -6.15378
       O    -5.22168   -3.85456   -6.07653
      H1    -4.95583   -3.52738   -5.19871
       H    -4.24958   -4.69781    0.46206
       O    -5.09653   -4.50602    0.79165
      H1    -5.09129   -3.57900    0.99186

