147
frame 10 | Written by MDAnalysis XYZWriter (release 2.4.3)
       H    -5.04630    3.40612   -3.77056
       O    -5.60236    2.65252   -3.65798
      H1    -5.78379    2.46342   -4.59715
       H    -1.83038    2.17601    1.52820
       O    -1.76452    3.08492    1.15270
      H1    -1.88245    3.02852    0.22213
       H    -7.68451    6.84051   -2.45001
       O    -7.22972    6.27001   -1.81136
      H1    -7.63622    5.37229   -1.96260
       H    -8.56511    8.46242    6.52013
       O    -8.02443    7.72714    6.99269
      H1    -8.61073    7.23977    7.59275
       H    -1.16793    6.10876    5.36678
       O    -0.48029    6.51242    5.86750
      H1     0.27048    5.90458    5.73582
       H    -2.87833    7.75547   -1.92341
       O    -3.78491    7.71658   -2.20726
      H1    -3.79738    6.90902   -2.73782
       H    -9.50012    4.15402    5.25881
       O    -9.07652    4.36223    4.37723
      H1    -8.30300    3.79086    4.19718
       H    -6.86771    5.33970   -4.77011
       O    -7.10596    5.98435   -5.50283
      H1    -7.90249    5.55113   -5.88071
       H    -3.97239    9.80965   -3.29971
       O    -3.82515   10.65939   -2.85332
      H1    -4.03057   10.44835   -1.90143
       H    -6.77040    4.78818    1.83696
       O    -6.78144    4.71108    0.88460
      H1    -7.64709    4.31566    0.64061
       H    -5.18622    6.20399   -4.37604
       O    -5.22564    5.49317   -3.71035
      H1    -5.83615    5.81137   -2.99177
       H    -4.77747    6.56343    1.38981
       O    -4.19063    5.81662    1.68431
      H1    -3.64952    6.33534    2.29829
       H    -2.37366    2.59756    4.75124
       O    -3.21291    3.03036    5.01376
      H1    -3.75978    2.68124    4.30777
       H     0.14642    5.94872    1.18972
       O     1.10926    5.97385    1.34522
      H1     1.35680    6.90481    1.33262
       H    -2.05535    6.45382    1.05088
       O    -1.41931    6.00751    0.50452
      H1    -1.50696    5.10316    0.89946
       H    -8.31574    6.47379    4.10841
       O    -8.07273    7.23297    3.64313
      H1    -7.85464    6.73870    2.87043
       H    -9.02332   12.68397    2.67923
       O    -8.66173   11.84219    2.43004
      H1    -8.13669   11.99331    1.63793
       H    -5.27989    2.11893    2.19323
       O    -5.40841    1.92914    3.11207
      H1    -6.22763    1.33733    3.14124
       H    -5.31787    9.12857    2.65507
       O    -4.63056    8.81921    3.36751
      H1    -5.21965    8.72317    4.12938
       H    -4.77333    8.90330    0.15856
       O    -5.43939    8.23234    0.28618
      H1    -5.41241    7.64311   -0.47232
       H    -2.83443    1.19522   -1.42903
       O    -1.88170    1.39702   -1.36654
      H1    -1.89527    2.35186   -1.52996
       H    -2.68550    4.75404    4.67172
       O    -2.53401    5.68186    4.37749
      H1    -3.18134    6.14094    5.01337
       H    -4.63528    7.60026    6.02296
       O    -5.47307    7.36009    5.60698
      H1    -6.09480    7.48298    6.35274
       H    -5.52108   12.06524    3.58679
       O    -6.15539   12.35134    2.87124
      H1    -6.98082   11.93113    3.14092
       H    -8.64374    3.75751   -3.69291
       O    -8.02413    3.75866   -2.94575
      H1    -7.25641    3.17530   -3.17018
       H    -4.43119   11.68795    0.14154
       O    -4.16782   10.75811   -0.02335
      H1    -3.24112   10.79247    0.11356
       H    -1.36123    8.15061    2.76939
       O    -2.11894    8.28185    2.14722
      H1    -2.81469    8.72380    2.63263
       H    -1.83943    4.86242   -1.16639
       O    -1.62927    4.10487   -1.76962
      H1    -0.65041    4.19247   -2.00431
       H    -1.82339   10.98510    4.16917
       O    -1.69220   11.35225    3.26773
      H1    -1.95256   10.69651    2.57746
       H    -5.14760    9.05474    7.44041
       O    -5.96005    9.06091    7.91832
      H1    -6.66292    8.66983    7.38843
       H    -1.20316    9.70744    0.86473
       O    -1.34666   10.42001    0.25181
      H1    -0.47872   10.74406    0.04219
       H     1.38139    6.89763   -2.46744
       O     1.25956    6.31535   -1.67990
      H1     0.50829    6.70733   -1.26398
       H    -1.16876    8.87200   -1.18008
       O    -0.98010    8.13239   -1.82225
      H1    -0.67491    8.57965   -2.64639
       H    -9.36043    9.94264    2.95799
       O    -9.92220    9.33790    3.43052
      H1    -9.41671    8.54680    3.51778
       H    -7.76173    9.32973    0.25465
       O    -8.66877    9.04700   -0.05656
      H1    -8.58743    8.44181   -0.79750
       H    -2.40483   10.75491    6.87741
       O    -2.46379   10.63233    5.96240
      H1    -3.15614   11.28601    5.66883
       H     1.14855    8.07570    3.63205
       O     0.20322    8.15225    3.68208
      H1    -0.03258    7.52767    4.39462
       H    -5.43347    3.75034    0.43127
       O    -4.76414    3.07056    0.42320
      H1    -3.90426    3.45657    0.62976
       H    -6.08602    4.13246    5.35740
       O    -5.77772    3.76151    6.16693
      H1    -4.85873    3.75127    5.90598
       H    -7.53903   11.05275   -2.00696
       O    -7.40704   10.41423   -2.76091
      H1    -6.47601   10.28014   -2.77722
       H    -5.13539    5.53967    3.23222
       O    -5.86667    5.29096    3.86183
      H1    -5.69362    5.93291    4.51550
       H   -12.56407    6.77261    1.61551
       O   -11.84701    6.75409    0.93761
      H1   -11.07901    7.19102    1.35479
       H   -10.10723    5.76855   -1.39816
       O   -11.02506    5.66890   -1.38186
      H1   -11.22449    5.99526   -0.50868
       H    -1.96332    4.96072   -3.40147
       O    -2.18609    5.47733   -4.20368
      H1    -1.65024    6.24740   -4.13264
       H    -8.20093    8.82600   -3.31328
       O    -8.44431    8.13226   -3.91436
      H1    -9.37412    8.31961   -4.18314
       H    -4.99159    1.54409   -2.22308
       O    -4.64248    1.20955   -1.43606
      H1    -4.73947    1.91904   -0.75713
       H    -9.53325    3.01595   -0.13531
       O    -8.59826    3.08938   -0.27970
      H1    -8.52683    3.23101   -1.22821
       H    -3.12795    7.93892    7.64397
       O    -3.21010    8.16472    6.66639
      H1    -2.78387    9.02297    6.56145
       H    -4.12274   13.04099    5.02986
       O    -4.44439   12.16962    4.84993
      H1    -5.06861   12.01192    5.60250

