147
frame 10 | Written by MDAnalysis XYZWriter (release 2.4.3)
       H    14.01374  -13.30020    4.27157
       O    13.22865  -13.05821    3.79167
      H1    12.71760  -13.87582    3.73241
       H     7.90423  -12.88466    6.02997
       O     8.46395  -13.66905    6.21475
      H1     8.21519  -13.89379    7.13013
       H    15.68796  -15.07162    0.19103
       O    15.60444  -14.18368   -0.26276
      H1    15.14685  -14.46661   -1.08486
       H     9.58342  -13.80155   -1.50107
       O     9.40409  -13.00438   -1.98965
      H1    10.12802  -12.85864   -2.59781
       H    11.46193  -14.13599    1.88237
       O    11.39767  -14.78474    2.59150
      H1    11.83374  -15.59244    2.30205
       H    13.53212  -12.42855    1.94340
       O    13.88796  -12.13761    1.09484
      H1    14.55960  -12.76350    0.88367
       H     7.49053  -15.19957    5.34860
       O     7.11066  -15.96447    4.89519
      H1     7.76673  -15.98124    4.17157
       H     8.76002  -15.88831   -0.71532
       O     9.46668  -15.42736   -0.31592
      H1     9.30904  -15.55686    0.62673
       H     8.22598  -13.95376   -3.58360
       O     8.14842  -14.79104   -4.07152
      H1     8.41058  -14.54000   -4.95685
       H    12.09131  -18.12301   -0.69114
       O    11.95767  -18.98095   -0.23780
      H1    11.67702  -19.57555   -0.97912
       H    15.62342  -13.59203    5.71060
       O    15.92275  -13.57829    4.75328
      H1    16.19968  -12.65120    4.60866
       H     8.55172  -18.22564   -2.74136
       O     8.33902  -18.50859   -1.83383
      H1     7.55295  -17.89180   -1.78612
       H    11.30452   -8.99108    6.27005
       O    11.52517   -9.90820    6.15563
      H1    12.43169   -9.91136    6.46669
       H     6.28744  -10.78097    1.71243
       O     6.79270  -11.51000    1.36761
      H1     7.37925  -11.04258    0.72465
       H     5.00198  -18.97737    2.86088
       O     5.27276  -19.88568    2.46804
      H1     4.67923  -19.93040    1.69979
       H     8.46750  -14.30277    2.94213
       O     8.68805  -15.17862    2.59824
      H1     9.65750  -15.16304    2.64316
       H    11.63478  -11.82321    3.68219
       O    11.06651  -11.08561    3.74782
      H1    11.33703  -10.61056    4.54452
       H     8.56778   -9.75805   -0.77830
       O     8.67329  -10.59406   -0.30753
      H1     8.91638  -11.24035   -0.95830
       H    13.16533  -12.58560   -0.96599
       O    12.70110  -13.00068   -1.73651
      H1    13.41256  -13.46270   -2.18945
       H     4.08904  -17.38813    0.41393
       O     4.42429  -16.48486    0.58952
      H1     4.43572  -16.08216   -0.27773
       H     7.58157  -13.21844   -1.38306
       O     6.68507  -13.30640   -1.18999
      H1     6.50593  -12.74239   -0.39031
       H     7.67929  -10.37634    5.61520
       O     7.38963  -11.16051    5.12312
      H1     8.08117  -11.34567    4.45632
       H     7.82639  -12.36964    2.50264
       O     8.49189  -12.67439    3.17501
      H1     9.30730  -12.65086    2.65765
       H     6.38681  -15.97638   -3.22018
       O     6.47719  -16.64223   -2.52996
      H1     5.68081  -16.71347   -2.13370
       H    15.18169  -15.31239   -2.93967
       O    14.43056  -14.77475   -2.72361
      H1    13.81030  -15.35064   -2.25374
       H    14.40632  -13.56157    8.02921
       O    14.65396  -13.84851    7.10312
      H1    14.48253  -14.76997    6.97298
       H     5.33438  -11.78889    5.70276
       O     4.59325  -12.15499    6.18551
      H1     4.95817  -12.20457    7.12274
       H    12.33414  -15.42979    6.83980
       O    11.61579  -15.30907    7.48648
      H1    11.42186  -14.37179    7.51727
       H    17.15587  -16.58749    4.31826
       O    16.40144  -16.38601    3.71313
      H1    15.98630  -15.56859    4.04480
       H    10.29211  -17.09056   -4.15124
       O     9.33360  -17.36437   -4.01557
      H1     8.78400  -16.53378   -3.94998
       H    11.97663  -16.46026   -2.31799
       O    12.50394  -16.49623   -1.41416
      H1    11.88773  -16.00937   -0.81544
       H     7.12863  -19.36337    1.99217
       O     8.04555  -19.53922    1.94079
      H1     8.31414  -19.53162    2.84262
       H    13.52830  -18.79283    5.42699
       O    13.96996  -18.95662    6.32354
      H1    13.31252  -19.08732    7.01731
       H     5.52245  -17.10832    3.49589
       O     4.68841  -17.43487    3.24453
      H1     4.57895  -17.16258    2.33286
       H     4.55788  -10.59319    2.94064
       O     5.28358   -9.94790    3.08984
      H1     5.96955  -10.34110    3.68313
       H    10.32591  -10.39568    0.73247
       O    11.09485  -10.05963    1.18944
      H1    11.00983  -10.44778    2.11197
       H    15.62577  -16.37959    6.78087
       O    14.63267  -16.46843    6.73120
      H1    14.47724  -17.44893    6.46479
       H     9.44681  -19.68712    4.75335
       O     8.88625  -18.96509    4.99655
      H1     9.28999  -18.47350    5.73745
       H     3.61572  -13.53736    4.30092
       O     2.91946  -13.44832    3.68853
      H1     2.70913  -14.30670    3.28227
       H    13.97901  -17.98016    2.71266
       O    14.49354  -18.34362    3.46168
      H1    15.11430  -17.58751    3.63500
       H    13.80602  -16.82335    0.74657
       O    13.30984  -16.75212    1.60828
      H1    12.62382  -17.44808    1.56260
       H     6.78210  -15.02561    8.69745
       O     7.37935  -14.24450    8.81752
      H1     7.90333  -14.57207    9.54016
       H    11.04376  -11.79372    0.95015
       O    10.90993  -12.75725    0.88549
      H1    11.22832  -13.00320    0.02077
       H    10.72156  -18.33251    1.25567
       O    10.89326  -18.06180    2.21629
      H1    10.17696  -18.48024    2.72053
       H     8.86020  -17.14750    7.86254
       O     9.68124  -17.65671    7.67639
      H1    10.33999  -16.88641    7.68973
       H     6.06809  -19.55191    5.48690
       O     6.41859  -18.81571    6.02676
      H1     7.30977  -18.78603    5.69503
       H     6.90124  -16.32383    6.68434
       O     6.91415  -16.69774    7.58499
      H1     6.70808  -17.59293    7.33908
       H    10.14985  -13.21849    6.92387
       O    10.83188  -12.78922    7.51706
      H1    11.05607  -11.93650    7.10424
       H     9.62200   -9.82158    8.89572
       O     9.16593  -10.29805    8.15733
      H1     9.83240  -10.91316    7.79518

