147
frame 2 | Written by MDAnalysis XYZWriter (release 2.4.3)
       H     1.26357   10.23668   -2.06300
       O     1.70408    9.37291   -2.22049
      H1     2.29088    9.32153   -1.48350
       H     4.67579   -1.46757   -3.18438
       O     4.49920   -2.35163   -3.51012
      H1     5.31211   -2.80353   -3.26558
       H     0.98800    4.24092    3.22869
       O     0.96290    5.14567    3.49591
      H1     1.05773    5.74011    2.71278
       H     2.20365    8.53652   -4.00894
       O     1.88801    8.15372   -4.82170
      H1     1.13095    8.69858   -5.06709
       H     4.27298    5.50188    1.22452
       O     4.45230    4.61800    1.06714
      H1     3.65033    4.10643    1.06174
       H     6.53351   10.34551    2.71839
       O     7.11504    9.69358    2.20376
      H1     6.49783    9.50378    1.46673
       H     1.80414    2.78283    1.34533
       O     2.47785    2.91921    0.67792
      H1     2.98448    2.08061    0.64835
       H     4.48532    6.46203   -5.15480
       O     4.52490    6.95470   -6.00517
      H1     3.57925    6.91047   -6.18321
       H    10.45320    2.99040   -2.33878
       O    11.09677    3.25650   -1.71211
      H1    11.79644    3.69704   -2.13218
       H     6.42569    5.17574    4.80497
       O     5.88510    4.62938    5.39357
      H1     6.00767    5.08534    6.29897
       H     8.26072    9.14282   -1.73823
       O     7.46826    9.22681   -2.27318
      H1     7.64576    9.68908   -3.18059
       H     0.63414    7.51306    1.63701
       O     1.48692    7.19066    1.84926
      H1     1.95058    7.93073    2.30104
       H     5.35168    3.20165    0.78749
       O     5.77366    2.56018    0.21609
      H1     5.38253    2.81744   -0.65841
       H    -0.39056    6.15005   -2.22479
       O    -0.35802    5.19379   -2.06773
      H1    -0.71494    4.96122   -1.22698
       H     3.36284    5.13612   -3.72047
       O     3.45906    4.81741   -4.68635
      H1     2.53528    4.96566   -5.01015
       H     8.76995    9.45373    0.95353
       O     9.06439    9.47732    0.03593
      H1     8.73798   10.30381   -0.24816
       H     5.63637    0.83135   -2.37137
       O     4.82957    0.33382   -2.58038
      H1     4.34849    0.42542   -1.73242
       H     5.16637    3.41005   -7.70314
       O     4.89555    2.78480   -8.42759
      H1     4.32715    2.09508   -8.01282
       H     0.17589    5.59982   -6.05140
       O     1.05965    5.71403   -5.63898
      H1     0.89807    6.61075   -5.39044
       H     1.37515    4.40446   -2.01492
       O     2.06662    3.76216   -1.90430
      H1     1.98591    3.59327   -0.95698
       H     2.67945    7.28120    0.08218
       O     3.17047    7.96264   -0.43961
      H1     3.28454    7.53093   -1.29292
       H    10.33744    4.89627    1.17932
       O    10.36160    3.92909    0.92530
      H1    10.67409    3.77191    0.01560
       H     8.24201    6.85911    4.38957
       O     7.45710    6.53687    3.88903
      H1     7.77950    6.69249    2.98789
       H     4.91101    8.43057   -0.16477
       O     5.78752    8.77732   -0.12576
      H1     5.92770    9.21679   -0.97727
       H     7.30936    7.37370    0.42894
       O     7.80465    6.74272    0.94616
      H1     7.77756    5.99037    0.37874
       H     7.12425    1.35823    1.30049
       O     7.06064    1.03321    2.17222
      H1     7.01608    1.76572    2.79450
       H     9.64369    1.07618   -3.75113
       O    10.21842    0.65799   -3.11983
      H1    11.11031    0.80492   -3.39868
       H     3.72315    8.54719    2.55532
       O     3.08527    9.22416    2.90431
      H1     2.81144    9.69699    2.11308
       H     3.59334    0.18509   -4.30756
       O     2.73180   -0.05404   -4.68157
      H1     2.70763   -1.01947   -4.80158
       H     5.10866    3.89479   -5.39657
       O     5.81784    3.69605   -6.03233
      H1     6.38085    3.01088   -5.66045
       H     1.70116    2.10980   -2.55963
       O     1.14002    1.33590   -2.83266
      H1     1.69347    0.88923   -3.47653
       H    11.97232    5.91832   -1.90819
       O    11.14953    6.43222   -2.07197
      H1    11.44851    6.75755   -2.93341
       H     9.51961    4.81105   -4.53278
       O     9.99533    4.96947   -5.38167
      H1    10.89891    4.53478   -5.30465
       H     5.83547    6.90004   -7.33931
       O     6.74856    7.05434   -7.67883
      H1     6.69447    7.98809   -7.97010
       H     7.62849    2.05535   -3.06836
       O     7.16377    1.49730   -2.47340
      H1     7.74301    1.28058   -1.71141
       H     4.84120    6.92123   -2.36677
       O     3.91457    7.01754   -2.68013
      H1     4.10307    7.70202   -3.29795
       H     4.82560    8.43282   -5.18685
       O     4.95035    9.15809   -4.58840
      H1     4.36815    9.88201   -4.85555
       H     3.92261    3.90311   -1.88798
       O     4.87745    3.98011   -2.01654
      H1     5.19116    4.68738   -1.51598
       H     7.34431    6.07129   -2.78181
       O     6.65376    6.58588   -2.41642
      H1     7.09968    7.42463   -2.41640
       H     9.90965    6.98448    1.01516
       O    10.53484    6.60038    1.64023
      H1    11.48107    6.87295    1.50374
       H     0.18908    2.22208    2.55724
       O     1.05688    2.50184    2.88792
      H1     1.25296    1.91469    3.67222
       H     7.46129   -0.13885   -4.68693
       O     7.88485   -1.01046   -4.87544
      H1     8.41312   -1.29844   -4.15997
       H     8.68650    1.84133   -5.73857
       O     8.43543    2.48725   -5.10920
      H1     8.83597    3.30306   -5.47866
       H     4.64510    1.15730    0.32029
       O     3.81322    0.74990   -0.02390
      H1     3.37024    0.17595    0.61847
       H     4.75705    6.82859    3.38755
       O     4.84296    7.22159    2.52158
      H1     5.79752    7.47303    2.39000
       H     0.26204    8.56798   -2.12343
       O    -0.50421    8.01623   -1.97868
      H1    -1.24660    8.55848   -2.15348
       H     7.30066    3.57577   -0.25610
       O     7.92744    4.30776   -0.26610
      H1     8.78753    3.94438    0.02893
       H     9.57226    5.17622   -2.57651
       O     8.85572    4.64888   -3.00261
      H1     8.21145    4.70678   -2.31097
       H     9.97014    0.94127   -1.36449
       O     9.32408    1.02497   -0.64755
      H1     9.89046    1.22348    0.13556

