147
frame 0 | Written by MDAnalysis XYZWriter (release 2.4.3)
       H   -10.85830   17.52111   -1.65519
       O   -11.51274   17.51379   -0.91983
      H1   -11.15471   16.79059   -0.41482
       H    -4.97334    9.74574   -8.01034
       O    -5.86657    9.95594   -7.67621
      H1    -6.39304    9.49322   -8.34690
       H    -7.62082    7.98752   -9.48468
       O    -7.61509    8.95535   -9.41638
      H1    -8.54676    9.21489   -9.31866
       H   -10.99498    9.60724   -2.69510
       O   -10.20762    9.23983   -2.18714
      H1   -10.60561    8.46917   -1.69553
       H   -12.96676    9.93261   -2.16467
       O   -12.60648    9.85972   -2.99876
      H1   -12.75859   10.73384   -3.43173
       H    -3.77048    9.94335    0.07813
       O    -3.54129    9.08338   -0.32193
      H1    -4.15102    8.87777   -1.09810
       H   -10.03627   15.66109  -10.24743
       O   -10.68486   15.56933  -10.96227
      H1   -10.40907   16.02745  -11.77329
       H    -3.20014    9.38367   -5.18621
       O    -3.56304    9.75719   -4.42840
      H1    -4.05014    9.08477   -3.88942
       H    -7.03769   12.83097   -4.60565
       O    -7.91353   13.21563   -4.73193
      H1    -8.24074   12.99467   -5.57706
       H    -9.08001   10.89252   -0.19276
       O   -10.06797   10.85452   -0.07805
      H1   -10.37624   10.13605   -0.66552
       H    -5.80360   18.82839   -1.50807
       O    -5.74815   19.39514   -0.73108
      H1    -6.59254   19.47615   -0.32803
       H   -12.56680   12.49716   -5.96190
       O   -12.85297   13.41119   -6.07416
      H1   -12.29591   13.65542   -6.83278
       H   -13.37204   17.70671   -5.78672
       O   -13.02966   17.98272   -4.88843
      H1   -12.53188   17.18860   -4.54421
       H    -6.01351   13.92205  -10.37452
       O    -6.81168   13.87947   -9.83648
      H1    -7.57008   13.49288  -10.39732
       H    -7.62412   13.53888    1.93407
       O    -6.87193   13.22178    1.37951
      H1    -7.27563   12.44149    0.90942
       H   -15.79206   13.76457   -2.81437
       O   -14.97472   14.11248   -3.22854
      H1   -14.29554   13.78989   -2.58413
       H   -10.87037   16.73275   -6.34945
       O   -11.42659   16.06691   -6.76283
      H1   -12.34017   16.35946   -6.81848
       H    -2.40763    9.83560   -1.54079
       O    -1.99506   10.35738   -2.23145
      H1    -2.47142   10.18509   -3.04415
       H    -9.09551   18.22330   -5.77035
       O    -9.37987   17.37228   -5.43227
      H1    -8.63720   16.77882   -5.63815
       H    -7.99724   15.17298   -1.82885
       O    -7.73951   15.68339   -1.06318
      H1    -7.42774   14.97689   -0.52342
       H    -3.66324   15.42138   -4.58903
       O    -4.15441   16.20536   -4.79350
      H1    -4.66435   16.46343   -3.98075
       H    -4.15783   11.51269   -4.67797
       O    -4.45042   12.42366   -4.67366
      H1    -4.63411   12.69398   -5.59965
       H    -8.43819   16.76277   -8.50998
       O    -8.63754   16.14654   -9.20285
      H1    -7.84597   15.53138   -9.15714
       H   -10.91693   12.39241   -0.21075
       O   -11.00853   13.31531   -0.44872
      H1   -10.60534   13.33225   -1.33824
       H   -12.31017   14.73503   -4.83664
       O   -12.47231   15.24377   -3.99392
      H1   -13.23782   14.84246   -3.53111
       H    -9.36651   17.73091   -3.72017
       O    -9.49317   17.92603   -2.76358
      H1    -9.53713   18.89259   -2.71533
       H    -7.25180   14.78530   -5.43371
       O    -6.94507   15.57247   -5.92680
      H1    -5.97761   15.61740   -5.74480
       H    -5.50493   14.56360    1.56169
       O    -4.76856   15.13433    1.62447
      H1    -5.01273   15.87992    2.22963
       H    -6.78263   11.46203   -0.80858
       O    -7.40100   10.92358   -0.25147
      H1    -6.84379   10.15411    0.06983
       H    -9.00149   11.16220   -7.28120
       O    -9.26964   11.97571   -6.84786
      H1    -9.97991   12.51197   -7.30597
       H    -3.98276   11.98895    1.42534
       O    -3.91537   11.78972    0.48717
      H1    -3.21578   12.44767    0.32785
       H   -11.48011   13.46733   -9.05234
       O   -11.05947   13.65906   -8.23167
      H1   -11.15339   14.60906   -7.99632
       H    -5.38036   12.49395   -2.47709
       O    -5.71718   12.70919   -1.55731
      H1    -4.97674   12.46597   -0.95533
       H   -11.06916    9.71841   -8.48636
       O   -10.19946    9.34636   -8.43835
      H1   -10.28903    8.62031   -7.82245
       H    -4.88557   16.75845   -1.97674
       O    -5.70676   16.95196   -2.46014
      H1    -6.29461   16.49529   -1.84122
       H    -5.46934   13.19670   -7.98060
       O    -5.18069   12.54315   -7.29928
      H1    -5.63165   11.72298   -7.58308
       H   -12.57467   13.60541   -0.66653
       O   -13.53514   13.65763   -0.81081
      H1   -13.80921   14.58655   -0.71370
       H    -4.06026   19.29695   -4.87638
       O    -3.49933   18.78258   -5.46903
      H1    -3.74664   17.89491   -5.25955
       H    -8.34813   17.10215   -0.10645
       O    -8.36198   17.35183    0.86772
      H1    -8.63222   18.28807    0.86175
       H    -3.59741   14.45539   -7.95954
       O    -3.58176   14.63919   -8.90170
      H1    -2.76869   15.17849   -9.03685
       H    -8.52176   13.06190  -11.78431
       O    -9.05322   12.90426  -11.01816
      H1    -9.54842   13.76300  -11.03779
       H    -3.05223   13.41399   -4.06835
       O    -2.55911   14.20250   -4.18470
      H1    -1.98367   14.28870   -3.44200
       H    -5.87413    8.38012   -2.31271
       O    -4.95333    8.19991   -2.55208
      H1    -4.88304    7.25398   -2.66671
       H   -10.74699   10.94937   -6.21212
       O   -11.58225   10.91034   -5.71244
      H1   -11.70150    9.97556   -6.00017
       H    -8.78892    6.43417   -3.43134
       O    -8.98278    7.25007   -4.00152
      H1    -9.40912    7.81806   -3.30921
       H    -6.52356   11.82643  -10.06291
       O    -6.09798   11.11444  -10.55224
      H1    -6.45448   10.38597  -10.05437
       H    -7.44275    7.75253   -4.75792
       O    -6.55670    7.48832   -5.09738
      H1    -6.44512    8.21619   -5.69881
       H   -10.44699   14.50706   -3.48702
       O    -9.75046   13.90740   -3.08916
      H1    -9.26906   13.59936   -3.86658
       H   -10.71163   14.85067    0.47453
       O   -10.60452   15.67297    0.99609
      H1    -9.72324   16.06357    0.92881

