147
frame 4 | Written by MDAnalysis XYZWriter (release 2.4.3)
       H    -9.63673  -16.04350   -8.03393
       O    -9.12613  -16.08428   -8.88751
      H1    -8.87604  -17.02096   -9.06081
       H    -9.55009  -19.12126   -6.92197
       O    -9.64425  -19.00061   -5.96825
      H1   -10.57451  -19.08318   -5.76310
       H    -1.94081  -16.83517  -10.38801
       O    -2.83673  -16.45691  -10.26294
      H1    -2.73999  -15.51911  -10.13839
       H   -12.73683  -19.47836  -17.08450
       O   -12.00989  -19.71415  -17.62316
      H1   -11.13665  -19.80031  -17.14766
       H   -10.65615  -16.51821   -3.79895
       O    -9.89102  -16.02266   -4.12713
      H1    -9.17174  -16.61562   -4.30465
       H    -9.81972  -15.14083  -15.94760
       O   -10.18206  -14.49941  -15.31773
      H1    -9.47682  -13.99165  -14.89544
       H    -5.94445  -19.41693  -16.91498
       O    -5.58276  -18.50788  -16.69227
      H1    -5.38611  -18.47523  -15.76577
       H    -6.99896  -17.52918  -14.03577
       O    -7.23051  -17.47849  -13.10520
      H1    -6.71081  -18.06448  -12.56703
       H   -11.24056  -15.27986  -11.62596
       O   -11.18844  -15.06636  -10.69307
      H1   -10.44488  -15.48501  -10.23233
       H    -3.27254  -17.86337   -4.54100
       O    -2.34343  -17.89663   -4.78143
      H1    -2.07932  -17.09526   -5.27595
       H    -4.09703  -18.32658  -14.12630
       O    -4.05219  -17.42665  -14.47227
      H1    -3.17293  -17.07240  -14.27923
       H   -14.12012  -18.27179   -8.19797
       O   -14.95450  -18.42805   -7.81508
      H1   -15.54378  -17.67664   -8.00905
       H    -8.00632  -15.80346  -12.67057
       O    -8.09398  -14.81488  -12.66513
      H1    -7.90391  -14.55926  -13.56890
       H    -6.26044  -14.87338  -12.13215
       O    -5.29913  -14.64523  -12.00661
      H1    -5.35568  -13.71158  -12.26474
       H   -10.62913  -11.53056   -9.78306
       O   -10.39641  -11.13910   -8.90508
      H1   -10.87921  -11.66784   -8.29315
       H   -12.35861  -16.16077  -13.40353
       O   -11.41789  -15.94430  -13.28676
      H1   -11.07323  -15.48512  -14.05068
       H   -10.43863  -13.48282   -6.42361
       O   -10.48588  -12.51595   -6.31236
      H1    -9.76793  -12.29469   -5.70120
       H    -5.67682  -19.25946   -2.72156
       O    -6.05342  -19.09105   -1.86928
      H1    -6.62609  -18.32124   -1.87660
       H    -8.16017  -17.94315   -5.44357
       O    -7.69953  -17.15695   -5.24249
      H1    -7.39967  -16.88470   -6.08738
       H    -5.00735  -15.73700  -14.53052
       O    -5.66901  -15.26923  -15.07421
      H1    -5.09767  -14.46970  -15.15187
       H    -7.49174  -12.59857  -14.13420
       O    -8.36238  -12.66613  -14.57034
      H1    -8.23521  -12.57190  -15.53285
       H    -5.56552  -15.63641   -7.21786
       O    -6.35878  -16.18285   -7.51312
      H1    -6.50053  -15.69116   -8.32947
       H    -1.15694  -16.74105  -12.73810
       O    -1.15704  -17.53034  -13.24332
      H1    -0.57872  -18.01618  -12.61351
       H   -14.58123  -18.64432  -15.87455
       O   -13.69517  -18.96197  -15.63759
      H1   -13.89471  -19.67659  -15.03955
       H    -9.75629  -19.05798   -0.84039
       O    -9.72905  -18.72520   -1.77827
      H1   -10.53219  -18.31234   -1.93864
       H    -9.55568  -18.88375   -9.48651
       O    -8.68023  -19.10704   -9.19656
      H1    -8.49756  -19.78970   -9.87523
       H    -5.36746  -18.69316  -10.41272
       O    -5.68868  -18.86763  -11.35204
      H1    -6.37414  -19.64245  -11.25031
       H    -5.82159  -11.87615  -13.95715
       O    -6.22318  -12.12507  -13.10343
      H1    -6.48439  -11.34490  -12.62015
       H    -3.90484  -13.87219   -6.73838
       O    -4.08778  -14.81214   -6.55634
      H1    -4.30326  -14.85949   -5.61636
       H    -4.32118  -14.23322  -10.05342
       O    -3.46285  -13.81666   -9.78445
      H1    -3.69068  -13.18608   -9.04120
       H    -6.04936  -17.32966   -4.68139
       O    -5.16249  -17.42778   -4.31573
      H1    -4.95050  -16.56692   -3.94237
       H    -2.59756  -15.51645   -6.61174
       O    -1.67521  -15.82373   -6.33486
      H1    -1.11286  -15.84444   -7.14019
       H   -10.87153  -12.13141  -12.00500
       O   -11.34401  -12.32088  -11.20691
      H1   -11.18478  -13.31456  -11.01847
       H    -2.22769  -17.33525  -16.58230
       O    -2.93203  -16.82237  -16.96693
      H1    -3.66974  -17.05867  -16.36673
       H    -9.47165  -17.21518  -16.18391
       O    -9.44086  -16.46575  -16.76238
      H1    -8.48682  -16.41235  -16.86515
       H   -12.64285  -18.78064  -10.94382
       O   -13.56333  -18.41003  -10.90576
      H1   -13.62188  -17.76744  -11.60981
       H    -6.88346  -14.00598  -10.64345
       O    -6.98354  -14.30820   -9.73970
      H1    -7.90289  -14.60278   -9.71252
       H    -6.32393  -16.69581  -17.78178
       O    -6.81630  -15.91773  -17.51811
      H1    -6.37070  -15.61843  -16.71093
       H   -10.53911  -17.59643  -13.00147
       O    -9.78532  -18.18191  -13.05318
      H1    -8.96471  -17.68059  -12.90475
       H   -11.68260  -15.24337   -6.57274
       O   -10.72651  -15.28931   -6.63967
      H1   -10.44451  -15.61141   -5.78160
       H   -15.59607  -19.26062   -4.76351
       O   -15.28983  -18.30565   -5.04462
      H1   -15.42117  -18.20019   -6.01375
       H    -8.46802  -17.46790   -1.96399
       O    -7.64993  -16.94804   -2.13566
      H1    -7.75608  -16.37498   -2.93773
       H   -13.73190  -17.49310  -14.59820
       O   -13.83764  -16.87243  -13.84339
      H1   -14.52289  -16.26891  -14.16047
       H   -15.18440  -14.93153  -10.10258
       O   -16.06303  -15.16964  -10.41927
      H1   -16.39707  -14.37563  -10.73596
       H   -12.39465  -17.71440   -2.00800
       O   -11.93249  -17.33904   -2.76191
      H1   -12.29245  -17.77318   -3.51874
       H    -4.23705  -17.50038   -9.40017
       O    -4.77635  -18.22291   -8.95407
      H1    -5.41611  -17.78658   -8.41114
       H    -7.61096  -11.94455   -9.15308
       O    -6.99472  -11.19378   -9.30108
      H1    -7.42630  -10.50225   -8.80722
       H   -12.91048  -15.29327   -9.77213
       O   -13.67594  -15.13228   -9.18368
      H1   -13.59800  -15.42465   -8.29213
       H   -14.54513  -15.87983   -5.83178
       O   -13.97539  -15.40372   -6.42397
      H1   -14.01133  -14.65395   -5.84444

