147
frame 10 | Written by MDAnalysis XYZWriter (release 2.4.3)
       H   -18.67748    0.27856   -4.38861
       O   -18.37447    1.20081   -4.65242
      H1   -18.03846    1.03054   -5.53830
       H   -19.61954    4.83303   -6.38889
       O   -19.13548    4.30221   -5.74017
      H1   -19.02993    3.39961   -6.11880
       H   -12.42898    6.17175   -4.42861
       O   -11.54648    6.21144   -4.01237
      H1   -11.78104    5.92081   -3.17857
       H   -17.06357   -1.06337   -9.35094
       O   -16.12726   -1.06431   -9.60227
      H1   -15.66030   -0.54179   -8.95020
       H   -11.99148    2.61696   -4.98882
       O   -12.01496    2.17957   -5.82970
      H1   -11.30136    1.60125   -5.80740
       H   -11.62670   -2.19621   -9.94302
       O   -11.06260   -1.36736   -9.92067
      H1   -10.97185   -1.23566  -10.85036
       H   -17.88019    4.19338   -9.90632
       O   -17.91926    5.12610  -10.02385
      H1   -18.54536    5.35532  -10.73055
       H    -9.77531    6.19734   -7.32861
       O    -9.49037    5.93659   -8.18777
      H1    -9.26450    4.97941   -8.12430
       H   -10.09000    3.87480   -5.85567
       O    -9.83482    4.74277   -5.50699
      H1   -10.43314    5.07467   -4.81789
       H   -15.25778    4.86431   -2.21518
       O   -14.61253    5.11295   -1.55737
      H1   -14.47400    6.03932   -1.70725
       H   -15.61110   -2.40092  -10.69227
       O   -15.48700   -3.29746  -11.07497
      H1   -15.61173   -3.31121  -12.00794
       H   -18.09175    1.93165   -9.52496
       O   -17.17869    1.93496   -9.81937
      H1   -16.90939    1.04747   -9.75755
       H    -8.89193    0.05579   -7.82360
       O    -8.75404   -0.52774   -8.52311
      H1    -9.58808   -0.71050   -8.89238
       H   -13.92155   -3.57119   -5.87339
       O   -14.14286   -4.35272   -5.30841
      H1   -14.52379   -4.09095   -4.48418
       H   -16.22276   -3.20697   -5.90542
       O   -16.69559   -2.88259   -6.65030
      H1   -16.12912   -2.10899   -6.88923
       H   -13.36114    1.40442  -10.64924
       O   -12.85622    2.22252  -10.64361
      H1   -12.94742    2.61421   -9.77156
       H   -13.03065    0.74065   -8.85816
       O   -13.34507   -0.07365   -9.21229
      H1   -12.51096   -0.44356   -9.48754
       H   -11.96201    8.94817   -7.22143
       O   -12.79024    8.59405   -7.60424
      H1   -13.43317    9.21132   -7.31357
       H   -12.21386    8.83741   -9.32029
       O   -11.91943    8.69926  -10.20536
      H1   -12.65519    8.90445  -10.77173
       H   -10.62367    5.29984  -11.35769
       O   -10.48610    4.67846  -12.13447
      H1   -11.39452    4.38631  -12.37757
       H   -19.12548   -1.56532   -9.58041
       O   -18.64792   -0.83817   -9.14947
      H1   -18.77267   -0.95266   -8.20593
       H   -16.25649    1.94875   -4.19731
       O   -15.39796    2.21214   -4.49013
      H1   -15.66019    2.40780   -5.39023
       H   -14.46708    6.74235   -9.21681
       O   -15.07602    7.41670   -9.64873
      H1   -15.45374    6.96541  -10.41680
       H   -13.79466    5.69088   -7.45389
       O   -13.84054    5.43750   -8.37295
      H1   -12.95262    5.52342   -8.74296
       H    -9.46679    3.36931  -11.56075
       O    -8.72361    2.74558  -11.34920
      H1    -8.11753    2.99127  -12.01390
       H   -13.04185    2.41755   -7.23012
       O   -13.59663    2.54488   -8.04634
      H1   -13.96787    3.44754   -7.94912
       H   -13.15914   -0.51685   -3.86706
       O   -14.00592   -0.23770   -4.20765
      H1   -13.96322    0.69594   -4.33770
       H    -8.89046    2.64104   -9.12535
       O    -8.57433    3.18294   -8.38710
      H1    -8.37981    2.51648   -7.73901
       H   -11.72978    6.85795   -9.98371
       O   -11.51425    5.91743   -9.85122
      H1   -10.75208    5.97180   -9.25695
       H   -17.63275    7.46701   -7.34352
       O   -16.99735    7.71299   -6.66537
      H1   -16.43143    8.39279   -6.97141
       H   -16.62171    1.73105   -7.79926
       O   -16.58396    1.47312   -6.83534
      H1   -16.04910    0.64093   -6.84017
       H   -16.97415    1.34729  -11.82968
       O   -16.93297    1.39540  -12.80504
      H1   -16.82643    0.50116  -13.10197
       H   -10.10081    1.24260   -2.28908
       O   -10.74599    1.46188   -3.00698
      H1   -11.34497    2.16332   -2.71539
       H   -17.30866    5.63806   -3.29039
       O   -16.69224    4.96968   -3.42442
      H1   -16.55505    4.89631   -4.43594
       H   -14.20363   -0.54726   -7.42747
       O   -14.81795   -0.79288   -6.73308
      H1   -14.41582   -0.70539   -5.86205
       H   -15.64685    6.23273  -12.52887
       O   -16.38633    6.60865  -11.94827
      H1   -16.77547    5.87125  -11.49957
       H   -13.78086    4.30737  -13.19816
       O   -13.03134    3.73071  -12.96134
      H1   -13.22850    3.29368  -12.10543
       H   -10.11557   -1.09338   -4.20839
       O    -9.54584   -0.83528   -4.99122
      H1    -9.52169   -1.61641   -5.53476
       H   -10.88742    1.03989  -11.92920
       O   -11.47914    0.31072  -12.21961
      H1   -12.25094    0.74649  -12.62414
       H   -13.34224   -3.52023   -9.08916
       O   -13.08944   -3.54892  -10.01888
      H1   -13.99926   -3.39263  -10.43120
       H    -9.19471   -3.69386   -6.99612
       O    -9.54727   -2.76969   -6.99246
      H1    -9.11081   -2.22585   -7.63985
       H   -13.62481    3.63825   -3.74472
       O   -12.78270    3.71382   -3.22759
      H1   -13.08927    4.09591   -2.39055
       H   -15.36975    0.38579   -2.51464
       O   -15.79049    0.43425   -1.62869
      H1   -16.34899    1.23317   -1.55395
       H   -16.29677    5.67980   -6.37124
       O   -16.35957    4.74612   -6.23801
      H1   -17.32669    4.61196   -6.28896
       H   -11.30196   -0.10224   -3.20149
       O   -11.68927   -0.99897   -3.21731
      H1   -11.78685   -1.32658   -2.33867
       H   -14.69449    0.91947  -13.17472
       O   -13.79206    1.19783  -13.39032
      H1   -13.70582    2.20839  -13.37958
       H    -8.74127    0.79859   -5.68953
       O    -8.38950    1.61246   -6.11275
      H1    -7.43209    1.50388   -6.09603
       H   -12.15359   -4.28244   -7.80515
       O   -12.52436   -3.52788   -7.38377
      H1   -11.76398   -2.98604   -7.13321
       H   -13.40321    6.97921   -6.19341
       O   -13.61981    6.20656   -5.66412
      H1   -14.42422    6.60142   -5.25125

