147
frame 7 | Written by MDAnalysis XYZWriter (release 2.4.3)
       H    -9.14525   -5.96362    5.04421
       O    -9.18188   -5.09830    4.60528
      H1    -8.53969   -4.49969    4.98099
       H    -9.24882   -2.35873    2.39919
       O    -8.29173   -2.26374    2.66316
      H1    -8.04276   -1.31780    2.62367
       H    -7.49304    1.15709    6.31426
       O    -6.89630    1.89515    6.42391
      H1    -5.96738    1.57770    6.22446
       H   -12.66705   -2.78223   -1.30659
       O   -11.83547   -2.97908   -1.85040
      H1   -11.03391   -2.93293   -1.26931
       H   -11.30988   -4.78882    2.72315
       O   -11.35905   -4.25810    3.55755
      H1   -10.54170   -4.47061    4.06382
       H    -9.81566   -4.60744    8.98532
       O    -9.29945   -4.60762    8.16189
      H1    -9.27673   -5.53034    7.88623
       H    -9.73509    0.75791    3.42031
       O    -9.66520    1.37502    2.64670
      H1    -9.04176    1.07215    1.97232
       H   -13.20619   -1.18067    2.41971
       O   -12.86968   -1.63947    1.63273
      H1   -13.60674   -1.92560    1.04887
       H   -10.75474   -1.02852    4.40163
       O    -9.95617   -0.52812    4.54171
      H1   -10.17210   -0.08539    5.35984
       H   -14.11421   -1.74673    4.49188
       O   -13.77549   -0.87427    4.17931
      H1   -14.45914   -0.18582    4.42865
       H    -7.32557   -3.40990    8.64172
       O    -7.45321   -2.71103    9.35022
      H1    -6.52282   -2.44240    9.48610
       H    -5.36625   -6.94620    5.43284
       O    -4.82698   -6.31262    4.88877
      H1    -5.31243   -6.15613    4.05967
       H   -10.58169   -3.73606    7.16159
       O   -11.03709   -3.04641    6.67925
      H1   -10.30436   -2.46187    6.39508
       H    -7.51629   -7.13716   -0.16196
       O    -7.69106   -6.20239    0.01856
      H1    -7.01622   -5.89348    0.63008
       H    -4.42512    2.02097    0.55481
       O    -4.22293    1.51670    1.41178
      H1    -4.74816    0.72624    1.19225
       H   -15.20912   -3.85757    3.62804
       O   -15.84437   -3.53761    2.93303
      H1   -16.00835   -4.31692    2.42777
       H    -8.23007   -2.46878    5.78067
       O    -7.56990   -2.83934    5.16625
      H1    -7.76403   -2.67957    4.19565
       H    -7.02063    2.88326    4.71414
       O    -6.73801    3.29270    3.88246
      H1    -6.00316    3.83094    4.13622
       H   -12.97631   -3.57388    4.25798
       O   -13.78808   -3.47054    4.76637
      H1   -13.76485   -4.09975    5.48601
       H    -9.95534    2.56860    6.47551
       O    -9.98351    1.59382    6.31229
      H1   -10.89292    1.39114    6.37785
       H   -12.14556   -0.56054    7.06444
       O   -12.39116    0.00108    6.30567
      H1   -12.99122   -0.41705    5.61809
       H    -4.68982   -0.82164   -0.35444
       O    -5.08962   -1.09623    0.46354
      H1    -6.03308   -1.20740    0.12503
       H    -8.25884    0.68713   -2.13800
       O    -7.35864    0.67340   -2.54870
      H1    -7.32450   -0.21082   -2.94758
       H   -10.75430    1.20640   -1.17133
       O   -10.59224    1.37273   -2.09778
      H1   -11.19981    2.08194   -2.37761
       H   -11.64259   -4.11323   -4.89836
       O   -11.97232   -4.67239   -4.16071
      H1   -11.73872   -4.11665   -3.36795
       H   -12.07816   -5.93241    5.12330
       O   -11.92488   -6.88431    5.08827
      H1   -12.52049   -7.33103    4.54235
       H    -4.88666   -5.86607   -2.88141
       O    -5.61398   -6.45985   -2.67467
      H1    -6.26988   -5.90668   -2.21365
       H    -6.36929   -0.22129    3.86276
       O    -6.81144    0.04806    3.01204
      H1    -7.09964    0.96958    3.16284
       H   -11.29976    3.66746    1.08859
       O   -11.62405    3.33317    0.22523
      H1   -12.00056    2.47969    0.51726
       H   -10.38358   -3.82607    0.99891
       O   -10.41479   -2.88221    0.99440
      H1   -11.32621   -2.68892    1.23543
       H   -10.89702   -6.54244    0.49643
       O   -10.42645   -5.70535    0.62631
      H1    -9.51816   -5.87396    0.35231
       H    -4.01049    0.50443    6.91745
       O    -4.49828    0.46044    6.08614
      H1    -3.96623    0.90087    5.40712
       H    -7.45976   -2.48965   -0.80072
       O    -7.53578   -1.77897   -0.16911
      H1    -8.07308   -2.16913    0.59893
       H    -4.66349   -1.29158    5.15661
       O    -4.77099   -2.24970    4.80636
      H1    -5.74746   -2.31526    4.78143
       H    -5.86171   -5.16607    2.20112
       O    -6.34407   -5.91623    2.49657
      H1    -7.15596   -5.54073    2.77655
       H   -12.43638    0.17771    1.46474
       O   -12.56975    1.13312    1.59736
      H1   -11.71524    1.40145    2.01197
       H   -14.09541    0.10690   -2.02827
       O   -14.00846    0.04275   -1.10733
      H1   -14.52793    0.81556   -0.75777
       H    -8.92380   -0.04669    7.51245
       O    -8.45910   -0.81696    7.12771
      H1    -7.93526   -1.26025    7.83953
       H    -9.63068    4.53373    2.91262
       O   -10.25602    4.10105    2.35465
      H1   -10.02916    3.16335    2.51944
       H   -11.33784   -0.01173   -3.15087
       O   -11.38191   -0.86204   -3.61308
      H1   -11.61589   -1.60137   -3.04743
       H    -6.00295   -3.88396    6.29981
       O    -5.93978   -4.48388    7.02566
      H1    -5.62014   -5.25958    6.50190
       H    -7.98363   -4.16671   -2.67599
       O    -7.53857   -3.99512   -1.77941
      H1    -7.79633   -4.77363   -1.25252
       H    -3.78129   -1.59698    3.38440
       O    -3.31867   -1.25451    2.54618
      H1    -4.01404   -1.22044    1.78427
       H    -5.49319    0.17268   -2.07125
       O    -4.50021   -0.00419   -1.96640
      H1    -3.99119    0.77551   -2.22823
       H    -9.94998    3.41482   -0.41574
       O    -8.92650    3.41017   -0.42157
      H1    -8.59073    3.85216   -1.23471
       H   -12.71477   -7.09232   -0.87322
       O   -12.41943   -7.60539   -0.08099
      H1   -12.25837   -8.48683   -0.44866
       H   -15.19343   -3.01303   -1.28366
       O   -14.46771   -2.66879   -0.76442
      H1   -14.31622   -1.77810   -1.08593
       H    -7.97215    0.03115   -0.16693
       O    -8.44602    0.73779    0.30044
      H1    -8.27272    1.62920   -0.02405
       H    -4.62787   -4.28580    0.15795
       O    -4.90198   -4.05361    1.01852
      H1    -5.11979   -3.13980    0.86046

