147
frame 4 | Written by MDAnalysis XYZWriter (release 2.4.3)
       H     8.99794   -1.58653   -0.58750
       O     8.47513   -2.25656   -1.01400
      H1     9.11552   -2.99176   -1.17162
       H    11.73496   -1.98249    0.03945
       O    11.65942   -2.10233   -0.96491
      H1    12.54283   -2.12559   -1.28691
       H    13.07414   -5.04824    3.93908
       O    13.79696   -5.25087    4.67174
      H1    14.47967   -5.73427    4.20194
       H     6.00207   -2.36757    0.94615
       O     6.12432   -3.03543    0.27053
      H1     6.88827   -2.72044   -0.18997
       H    16.25074   -5.24590   -5.24662
       O    16.51487   -5.04990   -4.32876
      H1    15.87765   -5.24620   -3.68283
       H    14.29634   -2.44115   -2.98799
       O    14.08123   -3.03037   -2.21927
      H1    13.94479   -3.93402   -2.51395
       H    12.50290    0.61935   -6.80336
       O    12.98614   -0.15917   -7.25425
      H1    12.53282   -0.42839   -8.09642
       H     6.76197   -5.41303    2.56188
       O     7.43467   -5.09358    1.89448
      H1     6.94078   -4.47387    1.32332
       H    10.22607    3.14832   -1.94885
       O    10.95948    3.78322   -2.06728
      H1    11.41658    3.51837   -2.84618
       H    10.24092   -1.85151    3.44638
       O     9.85948   -1.95453    4.31586
      H1     8.89538   -1.76536    4.24082
       H    17.18575    1.15540    1.42260
       O    17.51416    1.70111    0.76160
      H1    18.51417    1.63271    0.76028
       H    18.54663   -6.52592   -0.92651
       O    17.89529   -5.80252   -0.84596
      H1    18.34244   -5.06222   -0.50265
       H    16.56152   -2.00632   -1.55720
       O    16.57735   -1.54685   -2.39775
      H1    16.64806   -0.57156   -2.21091
       H    11.93914   -3.94383   -0.56647
       O    11.68908   -4.89664   -0.46132
      H1    12.30606   -5.40243   -1.08846
       H    14.41360    0.24226    0.42161
       O    14.00388    0.99753   -0.02959
      H1    14.72007    1.50015   -0.42739
       H    15.79664    0.81208    3.37138
       O    16.48622    0.36476    2.87816
      H1    15.96461   -0.25757    2.30071
       H    12.13977   -1.96220    2.29713
       O    11.39168   -2.06539    1.70227
      H1    11.18590   -3.01984    1.97644
       H     9.47622   -6.27979   -1.03463
       O     8.98697   -6.10388   -1.88495
      H1     9.12367   -7.00229   -2.22568
       H     9.31137   -6.32780   -5.07835
       O     9.76967   -7.12142   -5.42291
      H1     9.62346   -7.18118   -6.31759
       H    10.37326    4.81157    1.39166
       O    10.18036    4.05949    0.78907
      H1    10.86054    4.20233    0.16176
       H     8.58219    0.07879    1.91050
       O     8.02873    0.27117    2.70249
      H1     8.46817    0.99501    3.10262
       H    15.89711   -3.82992    0.33304
       O    14.91090   -3.84829    0.25141
      H1    14.84787   -3.45317   -0.65107
       H    10.23051    0.81889   -2.16732
       O     9.51675    1.51418   -2.13103
      H1     8.74365    1.09730   -2.50673
       H     8.61495   -3.85874   -6.15419
       O     9.23855   -3.24223   -5.88870
      H1     8.96999   -2.91715   -5.03545
       H    12.68682    0.48177   -1.17957
       O    12.03792    0.45649   -1.89825
      H1    11.63091   -0.46000   -1.88560
       H    11.62531   -5.14811    2.24143
       O    11.59026   -4.52220    2.98383
      H1    10.74509   -4.68674    3.47472
       H    12.05289    1.43583    1.27193
       O    11.30876    1.50144    1.87697
      H1    10.68114    2.12925    1.47914
       H    13.72550   -1.77903    4.49794
       O    13.23818   -1.41769    3.72211
      H1    13.01151   -0.48348    3.87333
       H    16.79875    1.74461   -0.82877
       O    16.27094    1.64456   -1.66259
      H1    16.61315    2.29829   -2.29646
       H    13.16933    2.53027   -4.23418
       O    12.29670    2.12724   -4.08299
      H1    12.30447    1.84940   -3.15840
       H    17.03905   -2.88586   -4.24836
       O    17.73272   -2.47208   -4.75577
      H1    17.41899   -1.55158   -4.77057
       H    14.58342   -6.78222    1.16853
       O    14.08759   -6.16766    1.76445
      H1    14.24533   -5.36182    1.22502
       H     9.82538   -4.50214   -2.92894
       O    10.07230   -3.61097   -2.95835
      H1    10.80243   -3.44536   -2.31869
       H    14.97807   -1.98709    0.90136
       O    14.62893   -1.19278    1.27694
      H1    14.33639   -1.41760    2.14070
       H    18.55175   -2.44444   -0.13715
       O    17.81897   -3.00890    0.14245
      H1    18.15112   -3.06363    1.08105
       H    12.78383   -3.51277   -6.51938
       O    13.57928   -2.89178   -6.63162
      H1    13.10266   -2.07742   -6.88140
       H    11.63518    2.53937   -5.73346
       O    11.34173    2.18841   -6.63405
      H1    11.80941    2.70688   -7.32020
       H    20.07251   -1.42984   -3.59521
       O    19.42712   -0.85019   -3.22580
      H1    18.59952   -1.39590   -3.39534
       H    16.41328    0.28348   -5.83219
       O    16.76649    0.14711   -4.94016
      H1    15.88179   -0.08360   -4.55111
       H    13.29876   -7.08721   -2.75242
       O    13.30968   -6.11742   -2.72434
      H1    12.63578   -5.84743   -3.36809
       H    13.05002   -0.44106   -4.00180
       O    13.87647   -0.90967   -4.15714
      H1    13.55858   -1.46217   -4.84842
       H    12.44895   -7.16945    1.54923
       O    11.73826   -7.81646    1.82115
      H1    12.16264   -8.63861    1.51995
       H    10.21543   -7.43835    0.84039
       O     9.29055   -7.46046    0.54559
      H1     8.91484   -6.71011    1.10296
       H    16.30624   -6.79087   -0.44839
       O    15.82658   -7.54160   -0.16471
      H1    16.42383   -7.98350    0.44013
       H    11.05878   -0.20278    4.77949
       O    11.54382    0.68139    4.67230
      H1    11.31446    0.91193    3.75048
       H     7.83190   -0.75289   -3.41004
       O     8.41080   -1.47654   -3.77512
      H1     8.57407   -2.11125   -3.06575
       H    11.14827   -4.62674   -5.60924
       O    11.97813   -4.94553   -5.93110
      H1    11.88024   -5.90355   -5.97149
       H     6.99476   -4.90578   -5.28354
       O     7.43311   -5.44851   -4.62420
      H1     7.24201   -5.10319   -3.74187
       H     9.24057    0.95558   -0.29439
       O     9.37766    0.29150    0.38187
      H1    10.08592    0.60294    0.92542

