147
frame 7 | Written by MDAnalysis XYZWriter (release 2.4.3)
       H    -0.80622    8.80820    9.56634
       O    -1.58964    9.38477    9.35058
      H1    -2.24624    8.66808    9.32432
       H   -11.27210   10.03551    3.59003
       O   -12.20783   10.38415    3.64574
      H1   -12.31151   10.99331    2.83990
       H    -8.51068    8.30497    7.24000
       O    -7.72262    7.76110    7.18676
      H1    -7.94743    7.07049    7.77341
       H   -13.45439   10.02129    6.84627
       O   -12.86167    9.97203    7.60134
      H1   -12.95129    9.06156    7.87878
       H   -12.32998    7.36503   10.66658
       O   -11.70483    6.87277   10.05008
      H1   -10.87407    7.04388   10.43735
       H    -7.49304    1.15709    6.31426
       O    -6.89630    1.89515    6.42391
      H1    -5.96738    1.57770    6.22446
       H    -9.61633    6.14803    4.67744
       O    -9.00516    5.96751    3.86690
      H1    -8.23284    5.56579    4.25518
       H    -6.75641   13.54229    7.56407
       O    -6.54055   14.15576    8.28954
      H1    -7.25220   14.80030    8.19812
       H   -10.35527    4.89942    7.36800
       O   -10.32947    3.97244    7.62429
      H1    -9.42471    3.96953    8.07857
       H    -1.63605    4.54132    9.50885
       O    -1.94223    4.31088    8.67589
      H1    -2.87402    4.04342    8.76236
       H    -8.27935    9.41860    9.71517
       O    -8.71359   10.11460   10.19515
      H1    -8.54831    9.90255   11.10783
       H   -11.16861    9.42225    7.07191
       O   -10.31459    8.95441    6.89761
      H1   -10.33572    8.88704    5.92244
       H    -7.61143    8.20395    1.34784
       O    -8.22227    8.09517    0.56372
      H1    -7.65086    7.89461   -0.17308
       H    -8.37743   12.28118    3.34731
       O    -8.02763   11.46788    3.64175
      H1    -8.04300   10.97257    2.81550
       H    -8.34582    2.86997    9.99572
       O    -8.82808    2.43659   10.69665
      H1    -9.62741    2.90951   10.79751
       H    -5.40103    7.77374   10.63198
       O    -5.25395    7.31741    9.74835
      H1    -5.05083    8.06070    9.13527
       H    -8.73721    5.46095   12.56512
       O    -9.35171    5.96008   12.00057
      H1    -9.98752    5.27879   11.68622
       H    -4.38898    9.09195    1.09793
       O    -4.43777    9.34201    1.99506
      H1    -4.75120   10.25975    1.88479
       H    -5.46293   12.36966   13.08249
       O    -6.37997   12.36327   12.75661
      H1    -6.24996   12.45974   11.79429
       H    -6.78058    8.13503    3.97548
       O    -6.85124    8.49795    3.11072
      H1    -6.01055    8.98577    2.92092
       H    -1.14414   11.41884    9.90930
       O    -0.54921   12.15548   10.04527
      H1    -0.74960   12.74304    9.26255
       H   -10.60116    7.25559    6.32193
       O   -10.64046    6.44485    5.82461
      H1   -11.56789    6.12932    5.70021
       H    -7.02063    2.88326    4.71414
       O    -6.73801    3.29270    3.88246
      H1    -6.00316    3.83094    4.13622
       H    -1.95638    9.36090   12.48755
       O    -2.87631    9.08143   12.65649
      H1    -2.80311    8.90517   13.60153
       H    -7.77317    5.20650    9.27840
       O    -7.91375    4.28300    8.95590
      H1    -7.14676    4.28038    8.40900
       H    -0.97622    3.83901    3.62211
       O    -1.43068    4.62934    3.49727
      H1    -2.33280    4.53812    3.93654
       H    -5.53403   10.03793   11.26922
       O    -5.53326    9.16034   11.68688
      H1    -4.64828    9.17975   12.11736
       H    -1.95320    5.73680    7.80209
       O    -1.96641    6.61259    7.37053
      H1    -1.33533    6.50024    6.64371
       H    -5.10466    6.89516    5.52527
       O    -6.00984    6.81386    5.14785
      H1    -6.57621    7.13941    5.88251
       H    -4.80750   11.76824    3.38177
       O    -5.33041   11.96731    2.61162
      H1    -6.25604   11.98761    2.92250
       H    -5.25633    5.91785    8.63780
       O    -5.48217    5.36672    7.90714
      H1    -4.99734    4.54684    7.92506
       H    -1.32174    9.08126    2.49342
       O    -1.78642    9.86713    2.24405
      H1    -2.70068    9.56438    2.09018
       H   -11.40614   11.76768    4.42927
       O   -11.04591   12.50844    4.98538
      H1   -10.42067   12.11054    5.65542
       H    -4.89741    9.01797    6.93955
       O    -5.57414    9.14955    7.71121
      H1    -6.31007    8.52213    7.50731
       H    -7.95738    9.23148   13.27551
       O    -8.26894   10.09529   12.87450
      H1    -7.56118   10.71385   13.00241
       H    -9.12997    9.81107    4.08607
       O    -9.80247    9.14151    3.89443
      H1    -9.28047    8.47635    3.42143
       H    -6.79838    5.53893   13.51816
       O    -7.26753    4.75092   13.20529
      H1    -6.69371    4.23704   12.65354
       H    -8.26684    6.67850   10.72977
       O    -7.83628    6.86268    9.84362
      H1    -6.90582    6.98351    9.87718
       H    -1.74583   10.22460    7.40790
       O    -1.96008   10.46481    6.45751
      H1    -2.83867   10.88806    6.52904
       H    -6.81372   12.75294    9.46761
       O    -6.69535   11.89689    9.94010
      H1    -7.55745   11.44466   10.08983
       H    -9.80967   11.85106    7.92911
       O    -9.41431   11.52846    7.08524
      H1    -9.61986   10.61146    7.03709
       H    -4.18043    5.13992    3.79144
       O    -4.08406    4.51143    4.52166
      H1    -4.08828    3.57409    4.19346
       H   -10.38928   11.28840    9.84855
       O   -10.76941   12.13410    9.52090
      H1   -11.74712   11.96419    9.40736
       H    -6.33570   10.98463    7.59034
       O    -6.70924   11.57358    6.93188
      H1    -7.67924   11.54203    6.98182
       H    -4.20308    5.95083    1.75957
       O    -5.06939    5.84487    2.21424
      H1    -5.39209    6.68899    2.46573
       H    -4.25647    3.02944   10.65709
       O    -4.34640    3.27287    9.69574
      H1    -5.01138    2.60535    9.45648
       H    -4.06416   14.40536    6.24983
       O    -3.36044   13.78863    5.97428
      H1    -3.04829   14.08845    5.15831
       H    -3.03366    7.72675    6.48515
       O    -3.41697    8.34310    5.79717
      H1    -2.89608    9.19702    5.80740
       H    -4.02133   12.34391    5.48115
       O    -4.45049   11.52053    5.08463
      H1    -5.30991   11.40012    5.54033

