147
frame 8 | Written by MDAnalysis XYZWriter (release 2.4.3)
       H    -6.32800  -16.89236   10.02289
       O    -5.88499  -16.39435    9.36692
      H1    -5.26541  -16.99677    8.93990
       H    -5.94667  -17.41617   12.91372
       O    -6.19307  -16.46300   12.91066
      H1    -5.46750  -15.94954   12.45173
       H     1.11591  -14.35384    7.85280
       O     1.33956  -13.93454    8.68461
      H1     1.73513  -13.04520    8.34742
       H     0.24651  -12.14763   11.22637
       O     0.68811  -12.99789   11.30210
      H1     0.86660  -13.22179   10.37193
       H    -8.87382  -14.50462   16.53312
       O    -7.95152  -14.68916   16.76497
      H1    -7.49445  -14.48807   15.88530
       H    -8.60330  -12.97494   12.08200
       O    -7.86125  -12.92789   12.69533
      H1    -7.29733  -12.18121   12.38796
       H    -7.11564  -13.80041   13.97903
       O    -6.40898  -14.06023   14.65616
      H1    -5.93682  -14.78748   14.12348
       H    -3.54772  -13.35465   17.45217
       O    -3.78271  -14.27975   17.42344
      H1    -4.68797  -14.31639   17.72415
       H    -2.06234  -12.26838   18.11821
       O    -2.60772  -11.66621   17.62647
      H1    -2.25483  -11.75006   16.72044
       H    -0.91905   -7.45816   13.02867
       O    -0.28455   -6.77984   13.46945
      H1     0.10964   -6.31435   12.78105
       H    -1.28286  -16.67817   18.80646
       O    -2.16169  -16.95720   18.47495
      H1    -2.75751  -16.21773   18.36735
       H    -0.24964  -14.05614   19.26082
       O    -0.27398  -13.09955   19.21195
      H1     0.47503  -12.88948   18.59364
       H    -2.80462   -8.95982   12.29218
       O    -1.94982   -8.54437   12.05388
      H1    -2.11542   -8.12802   11.11863
       H    -2.06595  -16.35704    8.47311
       O    -2.11010  -15.79739    7.62699
      H1    -2.26229  -16.45190    6.95609
       H    -1.40977  -12.29485   14.54137
       O    -1.68957  -11.57892   15.11369
      H1    -0.99668  -10.90071   15.06574
       H    -5.06053  -11.10452   16.42938
       O    -4.68742  -10.60647   15.63583
      H1    -3.80396  -11.00394   15.51105
       H    -4.66076  -15.58901   10.63848
       O    -4.56461  -15.06270   11.46547
      H1    -3.73865  -15.18841   11.96456
       H    -1.06782   -7.52736   16.47799
       O    -1.55103   -8.33537   16.26028
      H1    -2.45370   -8.24393   15.95657
       H     0.60426  -10.85497   16.25198
       O     0.49441  -10.09141   15.64665
      H1    -0.32135   -9.56138   15.81270
       H    -1.30127  -18.03952    9.53659
       O    -1.97798  -17.40715    9.78431
      H1    -2.17899  -17.34037   10.73577
       H    -3.76458  -12.03087   10.73255
       O    -4.14438  -12.42364   11.53295
      H1    -4.31839  -13.31740   11.24365
       H    -4.25114  -18.95582    8.14433
       O    -4.32660  -18.57470    9.02080
      H1    -3.46941  -18.29571    9.30477
       H    -0.83348  -10.13191    8.06859
       O    -1.32218  -10.75579    7.48666
      H1    -0.69637  -11.38682    7.06220
       H    -0.30883   -9.57838   11.83521
       O     0.22467  -10.16277   11.24820
      H1     1.06239  -10.19571   11.66171
       H    -5.16861  -11.73605   12.79437
       O    -5.82767  -11.16545   13.27006
      H1    -5.58852  -11.08968   14.17983
       H    -2.99288  -14.74648    6.39096
       O    -3.51742  -14.57808    5.60228
      H1    -4.37146  -14.98474    5.86458
       H     3.19050  -17.31731   12.41035
       O     3.77971  -16.65595   11.93305
      H1     3.18298  -16.17764   11.33820
       H    -0.69591  -13.48408   12.31314
       O    -1.31147  -13.36415   13.08427
      H1    -2.10821  -12.92753   12.69289
       H    -6.28653   -9.60210   16.10013
       O    -6.93170   -8.90376   15.93150
      H1    -7.79140   -9.27658   15.86011
       H    -0.01087   -9.30116    9.91350
       O    -0.14161   -8.93608    9.01308
      H1    -0.78866   -8.20440    9.00232
       H    -1.00618  -20.14930   12.83568
       O    -1.62047  -19.45762   12.50499
      H1    -1.34673  -18.72309   13.04025
       H    -4.26988   -9.12880    7.61425
       O    -5.02222   -9.21717    8.21751
      H1    -5.80662   -9.02888    7.68277
       H    -0.30818  -15.54557    6.89422
       O     0.62394  -15.44669    6.69187
      H1     0.59602  -14.89640    5.93457
       H     3.82676   -9.75010   11.26308
       O     3.20916  -10.19592   11.83261
      H1     3.42023  -11.11289   11.81771
       H    -7.51057  -14.68905   11.06170
       O    -8.07828  -15.48175   11.17833
      H1    -7.53072  -16.03784   11.75623
       H     1.23321  -14.38893   15.01584
       O     0.65879  -14.77099   15.71109
      H1     0.10816  -15.46953   15.39144
       H    -5.11074   -9.90032   12.44902
       O    -4.52659   -9.21188   12.09518
      H1    -4.77882   -8.35157   12.32744
       H     2.05768  -16.99031   17.70939
       O     2.19078  -16.08277   17.47460
      H1     1.53794  -15.82612   16.80551
       H     3.55951  -16.29646    8.71993
       O     3.21407  -15.70206    9.39005
      H1     2.44900  -15.28024    9.00759
       H     3.39458  -12.86552   15.03499
       O     2.62677  -13.09882   14.46821
      H1     2.98899  -13.06114   13.52740
       H    -5.95551  -11.94379   18.82833
       O    -6.27509  -11.76478   17.89573
      H1    -6.29730  -12.64784   17.46758
       H    -4.32677   -6.76311   15.82532
       O    -3.93892   -7.38656   15.18554
      H1    -4.64901   -8.07714   15.07781
       H    -4.65257  -11.99203    6.80824
       O    -5.17586  -11.51064    6.12012
      H1    -5.34004  -12.09566    5.34466
       H    -3.66442  -15.75235   15.90231
       O    -3.81580  -16.25657   15.09138
      H1    -3.34057  -15.74082   14.44511
       H     0.85156  -17.64062   13.83093
       O     0.03572  -17.21426   14.11360
      H1    -0.09887  -17.52697   15.03705
       H    -3.02020  -11.48619    8.29561
       O    -3.93808  -11.82874    8.51134
      H1    -4.42366  -10.99559    8.44370
       H     2.50486  -13.29499   11.67312
       O     3.45239  -13.12096   11.78449
      H1     3.84836  -13.14693   10.89993
       H    -1.74380  -14.80870   13.03808
       O    -2.14894  -15.69316   12.98915
      H1    -1.35116  -16.22171   13.10623
       H     1.16642  -13.23190   16.81135
       O     1.27891  -12.34033   17.16393
      H1     2.23879  -12.12753   17.00963

