147
frame 11 | Written by MDAnalysis XYZWriter (release 2.4.3)
       H    -4.20777   -3.48575  -11.73184
       O    -3.46627   -3.73473  -11.16217
      H1    -2.61969   -3.40699  -11.52018
       H    -3.99441   -1.03691   -5.64785
       O    -3.09793   -0.73569   -5.66589
      H1    -2.92997   -0.46292   -4.72596
       H    -0.62910   -4.88176   -3.03191
       O    -0.23001   -4.87883   -3.95231
      H1    -0.87773   -4.38166   -4.46780
       H    -1.95609   -2.84688  -15.03469
       O    -1.49936   -3.64624  -15.27551
      H1    -0.84740   -3.83371  -14.53700
       H    -2.21412   -8.12046  -14.92773
       O    -1.32849   -8.46402  -14.96119
      H1    -0.99861   -8.25959  -15.88688
       H     3.52224   -4.41973   -9.44254
       O     3.00561   -4.56298  -10.20233
      H1     3.58955   -4.99524  -10.85213
       H     1.68516   -4.09227   -5.46894
       O     2.08298   -3.42157   -4.84799
      H1     1.85812   -3.83530   -3.97049
       H     0.11868   -3.66624   -8.81613
       O     0.15655   -2.69949   -9.05093
      H1    -0.54799   -2.33729   -8.52855
       H    -0.55181   -6.76771  -10.12535
       O    -1.00150   -7.62590  -10.46281
      H1    -1.89783   -7.33339  -10.61856
       H     0.88191   -2.01345   -5.01189
       O     0.42445   -1.23183   -5.40386
      H1     0.77101   -1.18290   -6.31576
       H     1.06797   -5.75924   -9.70243
       O     0.17392   -5.62680   -9.25606
      H1     0.36418   -5.73769   -8.32521
       H     4.67734   -4.00636   -7.26724
       O     4.74286   -3.49524   -8.13444
      H1     5.61636   -3.74108   -8.45975
       H     0.78684    2.86725  -13.12992
       O     0.31603    3.66580  -13.06614
      H1    -0.56642    3.45658  -13.37047
       H    -1.78401   -0.35489  -15.33933
       O    -2.28526   -1.06708  -14.80789
      H1    -2.49582   -0.65883  -13.97562
       H    -5.77257    0.14764  -10.45889
       O    -6.01784   -0.76718  -10.43874
      H1    -6.95237   -0.73350  -10.20568
       H    -1.19277    2.26921   -8.22508
       O    -1.11093    1.74591   -9.00408
      H1    -1.60315    0.91424   -8.74291
       H     4.77951   -0.13271   -9.15813
       O     5.44775    0.14037   -9.75320
      H1     5.03967    0.81428  -10.39302
       H    -3.54548   -3.18017  -16.32376
       O    -4.00353   -2.63345  -16.94849
      H1    -3.38761   -2.48785  -17.75712
       H    -1.63728   -2.38288   -5.34979
       O    -2.05255   -3.29183   -5.25088
      H1    -3.01079   -3.16916   -5.26777
       H     2.48863   -0.59531  -13.60242
       O     2.15725   -0.46052  -14.48438
      H1     2.56058    0.33063  -14.81042
       H    -6.57608   -3.19181  -12.24510
       O    -5.73670   -2.78532  -12.54470
      H1    -5.55815   -2.07242  -11.91025
       H     2.71643   -1.37712  -10.90240
       O     3.14396   -2.06779  -11.38383
      H1     3.19245   -2.87872  -10.91181
       H    -0.52055   -5.76463  -17.27658
       O    -0.49314   -4.81831  -17.56807
      H1    -0.72717   -4.38705  -16.75982
       H     0.80702    1.49838   -9.67247
       O     1.56456    1.10446  -10.13793
      H1     2.27290    1.76777  -10.22016
       H     2.15680   -8.36950   -9.15822
       O     1.63477   -8.20511   -8.30697
      H1     1.04076   -8.95307   -8.28092
       H     2.46732   -7.75297  -11.19089
       O     2.33408   -6.98802  -11.78131
      H1     1.46971   -7.14059  -12.15341
       H    -5.68462   -4.32071   -8.77141
       O    -5.91347   -5.29161   -8.60847
      H1    -5.41095   -5.54960   -7.83638
       H    -1.81296    1.64553  -12.21782
       O    -1.57302    1.10760  -13.00678
      H1    -0.97803    0.42498  -12.75937
       H    -1.14673   -8.94254   -9.18874
       O    -0.85167   -9.72853   -8.69511
      H1    -1.55717   -9.96995   -8.02348
       H     0.73692   -0.33999  -11.28856
       O     0.26705   -0.74625  -12.06130
      H1    -0.17532   -1.61948  -11.74870
       H    -1.96509    2.55119  -10.36777
       O    -2.41732    2.99053  -11.08713
      H1    -3.27349    2.54683  -11.10923
       H    -2.12639   -0.91154   -7.37143
       O    -1.88966   -0.95955   -8.33346
      H1    -2.59661   -1.45906   -8.77742
       H     0.29414    1.45290  -15.27708
       O    -0.68471    1.27394  -15.40207
      H1    -1.07269    1.22650  -14.50173
       H     1.26714   -1.24356  -15.68111
       O     0.97011   -1.96405  -16.24394
      H1     0.09450   -2.26266  -15.95126
       H    -4.20572   -7.02077  -10.52839
       O    -3.67819   -7.52477  -11.08441
      H1    -4.13326   -7.77022  -11.89122
       H    -4.98988   -5.55569   -5.21042
       O    -4.61298   -5.87466   -6.04470
      H1    -4.27169   -6.76603   -5.84613
       H     3.25878   -7.42382  -14.69320
       O     3.96564   -7.33345  -14.00532
      H1     3.48864   -7.19502  -13.09883
       H     4.39680   -4.35834  -14.39078
       O     5.09247   -5.02778  -14.52377
      H1     4.61194   -5.84307  -14.53136
       H     4.66248   -1.51368   -7.20952
       O     4.90704   -0.83900   -6.60382
      H1     4.06058   -0.55853   -6.14037
       H    -0.52691   -3.16410  -10.83323
       O    -0.94102   -3.06713  -11.71112
      H1    -0.35045   -3.62150  -12.21986
       H    -4.73289   -1.58859   -9.60196
       O    -3.95848   -2.09147   -9.25947
      H1    -3.78572   -2.72884   -9.92815
       H    -2.80698   -4.77605  -15.41243
       O    -3.56155   -5.33835  -15.66790
      H1    -3.50790   -5.41108  -16.58403
       H     1.47336   -6.12776   -6.73907
       O     0.99344   -5.31558   -6.62657
      H1     0.44835   -5.44656   -5.86358
       H     3.27402   -4.67946  -16.49479
       O     2.45638   -4.55590  -16.01652
      H1     1.96422   -3.76972  -16.33506
       H     3.00611   -2.19226  -14.34530
       O     3.60526   -2.80621  -13.93503
      H1     3.62675   -2.45100  -12.99150
       H    -4.06125   -8.42784   -9.41162
       O    -4.40926   -8.70862   -8.56884
      H1    -4.96072   -9.46319   -8.88333
       H    -0.55643   -7.44468  -12.10691
       O    -0.21121   -7.20912  -12.98679
      H1    -0.57643   -7.71005  -13.70931
       H     0.14886   -5.54032  -13.54151
       O     0.46368   -4.60513  -13.71465
      H1     1.28637   -4.69249  -14.19773
       H     1.50181   -0.18227   -9.03681
       O     1.64523   -0.76499   -8.28619
      H1     1.23957   -1.58357   -8.48600

