147
frame 6 | Written by MDAnalysis XYZWriter (release 2.4.3)
       H    -5.03461   -8.94280    5.64035
       O    -5.52679   -8.32028    6.13371
      H1    -6.40859   -8.66673    6.27472
       H    -7.26126    0.46027   11.18491
       O    -6.64195   -0.24311   11.02630
      H1    -5.92041    0.01919   11.59097
       H    -6.56949   -7.31074   10.15191
       O    -7.46536   -7.49959    9.79371
      H1    -7.47304   -8.46932    9.76811
       H    -3.81941   -2.85019   11.72146
       O    -3.52655   -1.96777   11.36624
      H1    -3.46000   -1.51453   12.22812
       H     3.39926   -2.43253   12.74747
       O     3.51596   -2.99501   11.95370
      H1     2.87501   -2.64424   11.33773
       H    -8.16751   -5.85581    6.16542
       O    -8.47363   -4.93833    5.96639
      H1    -7.68141   -4.41022    5.88507
       H    -1.30595   -6.10928    6.24899
       O    -0.48188   -6.66308    6.33345
      H1    -0.90411   -7.51696    6.39822
       H     1.24529   -6.16859    3.76726
       O     0.50456   -6.76578    3.76797
      H1     0.21987   -6.93919    4.68778
       H     2.96006   -2.21484    7.03231
       O     3.52771   -2.99219    6.94708
      H1     2.95155   -3.73563    7.20602
       H     0.04837   -1.93936    2.96341
       O     0.72364   -2.35934    3.51886
      H1     0.76205   -1.94499    4.36619
       H    -4.37610   -4.89179   12.74889
       O    -4.68567   -4.50487   11.90742
      H1    -4.49772   -5.26964   11.34095
       H    -7.90062   -4.17440   11.80177
       O    -7.40248   -4.47968   12.56059
      H1    -6.47215   -4.36673   12.28506
       H    -1.50090   -1.00053   13.97951
       O    -2.39907   -0.99065   13.64430
      H1    -2.80054   -0.14791   13.92454
       H     0.13519   -8.80678   12.44851
       O     0.54401   -7.98052   12.42313
      H1     0.13575   -7.41859   11.75851
       H    -0.15067   -3.44155    8.30026
       O    -0.92008   -2.90263    8.54735
      H1    -1.02437   -2.24209    7.86393
       H    -8.21070   -4.59457    9.73749
       O    -8.09318   -3.64159    9.93761
      H1    -7.18687   -3.40416    9.76208
       H    -1.56544   -6.66574    9.50177
       O    -1.17878   -7.26228   10.23436
      H1    -1.60706   -6.81781   11.04520
       H    -5.64595   -6.72119    5.58136
       O    -5.59600   -5.69888    5.57934
      H1    -6.26138   -5.38330    4.95702
       H    -2.26226   -9.35146   12.10893
       O    -1.41832   -9.70353   11.69063
      H1    -1.18829   -9.37189   10.81418
       H     2.46036   -0.23619    9.97387
       O     2.61031   -1.19190    9.73643
      H1     3.51850   -1.29257    9.48335
       H    -0.96462   -3.93864   14.54698
       O    -1.90263   -3.67139   14.84324
      H1    -1.72981   -2.86515   15.23254
       H    -4.39028   -7.41684   11.27491
       O    -4.86894   -6.88951   10.65862
      H1    -4.53136   -7.12000    9.77365
       H    -2.06679   -4.88850   11.13597
       O    -1.72335   -5.17901   12.04506
      H1    -2.38024   -4.89862   12.64682
       H     0.84810   -9.57291    9.32126
       O     0.08759  -10.09030    9.02542
      H1     0.39359  -11.02604    9.08507
       H    -2.28881   -9.80724    6.56395
       O    -1.68592   -9.23086    7.02185
      H1    -1.24072   -9.73170    7.69159
       H     3.02569   -5.42709   10.36830
       O     2.08945   -5.64688   10.26968
      H1     1.76342   -5.00795   10.90211
       H    -1.62946   -1.13471   11.33077
       O    -0.81952   -1.28690   10.81529
      H1    -1.06396   -1.75784    9.99514
       H     0.66999   -0.81547    6.40137
       O    -0.18686   -1.02182    6.04059
      H1    -0.43598   -0.28703    5.47538
       H    -5.82550   -1.77083    9.05657
       O    -5.56823   -2.61787    9.48965
      H1    -5.02500   -2.29561   10.22936
       H     2.16747   -8.83448   10.63289
       O     2.00665   -8.36718    9.81252
      H1     1.72797   -7.43385   10.02695
       H    -3.17470   -8.50525    7.82448
       O    -3.98990   -8.22779    8.24542
      H1    -4.64227   -8.12555    7.52264
       H    -5.66592    0.35471    6.58908
       O    -5.77290    0.78490    5.70500
      H1    -4.99087    1.30755    5.48833
       H    -2.04360   -4.22247    9.04194
       O    -2.29958   -5.04346    9.52882
      H1    -3.28966   -5.09195    9.47773
       H     3.10401    0.05376    6.64371
       O     2.37756   -0.40057    7.10163
      H1     2.70707   -0.58808    7.99584
       H    -4.79772   -0.74773    5.20011
       O    -4.73232   -1.74720    5.06278
      H1    -5.71892   -1.93540    4.99080
       H    -4.38064   -8.80206   13.09368
       O    -3.73200   -8.20173   12.73242
      H1    -3.55997   -7.52131   13.38323
       H     1.08540   -4.15500   13.44056
       O     0.85108   -4.33784   14.38092
      H1     1.15181   -5.27919   14.47870
       H    -3.23027   -4.34639    5.86440
       O    -2.69942   -5.00491    6.30991
      H1    -3.28639   -5.31721    7.03114
       H    -3.18793   -5.87769    3.21592
       O    -4.02963   -6.33712    3.34137
      H1    -4.42264   -5.78562    4.01576
       H     0.11738    0.24681   10.66324
       O     0.81867    1.01018   10.61179
      H1     0.83672    1.39291    9.68246
       H    -0.19504   -4.17999   11.82768
       O     0.65713   -3.60439   11.75575
      H1     0.25688   -2.81967   11.37234
       H     1.37865   -5.34520    7.15093
       O     1.38255   -4.62501    7.71602
      H1     1.78079   -4.98495    8.51227
       H    -5.18597   -3.96425    8.38970
       O    -5.05979   -4.93658    8.21699
      H1    -5.30546   -5.15134    7.26571
       H    -4.00816   -2.27973    3.70951
       O    -3.55496   -2.81118    2.94812
      H1    -4.03085   -2.39017    2.21385
       H    -7.30417   -0.29043    8.11321
       O    -6.37579   -0.26471    8.31603
      H1    -6.45353   -0.24727    9.30546
       H    -3.25007  -10.57450    9.95516
       O    -4.10157  -10.62340    9.61329
      H1    -4.13277   -9.70876    9.21569
       H    -2.24500   -4.15444    2.97458
       O    -1.73344   -4.89713    2.60692
      H1    -1.09496   -5.21731    3.27962
       H    -4.82489   -6.18759   14.11692
       O    -3.93574   -5.83907   14.03914
      H1    -3.73692   -5.50090   14.91441
       H    -4.37900    2.03058    9.49243
       O    -3.46856    1.86511    9.71847
      H1    -3.42471    1.17708   10.42061

