147
frame 10 | Written by MDAnalysis XYZWriter (release 2.4.3)
       H     8.17741   -0.65714   -0.08458
       O     8.52911   -1.16947   -0.83509
      H1     9.47785   -1.35896   -0.57230
       H     6.51107   -0.85786    3.15736
       O     6.56998   -1.82583    3.21731
      H1     6.97452   -2.05772    2.33303
       H     5.12850   -0.04297   -2.29516
       O     4.71608   -0.91840   -2.50336
      H1     5.43316   -1.60863   -2.59821
       H    10.25405   -2.69711   -2.31230
       O    11.10451   -2.43706   -2.76598
      H1    11.79274   -2.42806   -2.03024
       H     7.12841    3.80484    4.57433
       O     7.00046    2.93048    4.96633
      H1     7.81002    2.57113    5.38061
       H     7.72728   -2.56557    0.21766
       O     7.13270   -3.06553    0.79306
      H1     6.27800   -2.83885    0.49017
       H    13.52901   -3.54999   -1.42341
       O    13.32689   -2.60407   -1.30983
      H1    12.82260   -2.51400   -0.50806
       H     1.51246    0.82921    0.02469
       O     2.01792    1.67485   -0.00022
      H1     1.66904    2.24625   -0.68820
       H     6.75676   -6.01873    0.53516
       O     7.00921   -5.55254   -0.30127
      H1     7.18254   -4.69430    0.07904
       H     9.53473   -5.43439    4.91252
       O     9.81702   -4.51939    4.84289
      H1    10.58945   -4.61732    4.26599
       H     5.59978   -1.30714    5.95140
       O     5.03910   -0.58420    5.51578
      H1     5.05537    0.14833    6.10886
       H    10.70037    3.95561   -1.91943
       O    11.66070    4.12945   -2.10291
      H1    12.05951    3.64599   -1.36298
       H     4.18791   -5.05489   -2.84044
       O     3.61876   -5.40765   -2.14561
      H1     3.10115   -6.06995   -2.59887
       H     5.19818   -5.22579    3.41725
       O     5.93401   -5.91720    3.44573
      H1     5.73928   -6.57886    2.75767
       H     9.10474   -3.14674    4.15810
       O     9.03028   -2.29306    3.63182
      H1     8.10894   -2.04301    3.77539
       H     3.51312   -2.90716    1.47440
       O     3.02060   -3.27167    2.21808
      H1     3.63424   -3.33731    3.00781
       H     6.08911    2.86979   -0.98362
       O     6.35521    3.64037   -0.54280
      H1     5.54647    4.06900   -0.15395
       H     3.02010   -0.42648   -3.36068
       O     2.43056   -0.04042   -4.03355
      H1     1.88384   -0.79426   -4.41276
       H     6.64592    0.81939   -2.23351
       O     5.91494    1.25427   -1.81744
      H1     5.87957    1.04265   -0.86910
       H    11.54047   -4.60691    2.24462
       O    11.84357   -4.45925    3.13585
      H1    12.58083   -4.95265    3.43019
       H    14.38812    0.04407   -0.40185
       O    14.16678    0.54154   -1.19547
      H1    14.19987    1.47677   -1.01072
       H    11.51255   -1.47630    0.90180
       O    11.06720   -1.95568    0.15329
      H1    10.91415   -2.86393    0.41624
       H     3.42821   -0.75819    4.24055
       O     2.63117   -0.68479    3.71332
      H1     2.65059   -1.46406    3.09024
       H     8.86483    1.51333    7.28459
       O     9.06955    1.77438    6.37425
      H1     9.41304    1.03586    5.87568
       H     7.74830    0.97556    2.79659
       O     6.82164    0.98604    2.98951
      H1     6.69370    1.64221    3.67746
       H    11.35284    0.92192   -0.90026
       O    10.90268    1.26849   -0.10309
      H1    10.36581    2.01568   -0.46800
       H     7.01554   -0.17890   -5.49374
       O     7.83217   -0.69027   -5.40415
      H1     8.24165   -0.26713   -4.59830
       H    12.81136   -0.05435   -2.00454
       O    11.89819    0.05035   -2.38054
      H1    11.61377   -0.85275   -2.54605
       H    11.44892   -4.88366   -0.10939
       O    10.85827   -4.61180    0.60928
      H1    10.10186   -5.24577    0.64774
       H    10.54989    2.99037    2.95692
       O    11.38109    2.49347    2.91017
      H1    12.02412    3.04922    3.33926
       H     6.27893    2.70998   -3.18919
       O     6.18881    3.26142   -3.96226
      H1     5.78394    4.03594   -3.56510
       H    12.49298   -3.00322    2.57238
       O    12.85026   -2.12397    2.30655
      H1    12.52214   -1.52813    3.02122
       H    12.53742    1.96308   -4.80022
       O    11.68712    1.47887   -4.84164
      H1    11.63456    0.90377   -4.06955
       H     8.87219    3.28970   -2.22898
       O     9.17089    3.03548   -1.37852
      H1     8.49195    3.42882   -0.79896
       H     6.33792   -4.18770   -1.83733
       O     6.36876   -3.29087   -2.24780
      H1     6.79819   -3.42086   -3.10463
       H    15.47313   -1.54707    1.27959
       O    15.08005   -0.61709    1.23842
      H1    14.25617   -0.73344    1.70857
       H     4.76058   -3.64063    5.10519
       O     4.72516   -3.66944    4.15610
      H1     5.44420   -3.12407    3.78472
       H     4.29505   -2.16541   -6.29663
       O     4.68281   -1.47473   -5.69527
      H1     4.01015   -1.11586   -5.03380
       H     4.25162   -1.18036    0.63201
       O     4.32158   -2.10090    0.34993
      H1     4.48750   -2.02673   -0.57404
       H     9.53639   -7.48730   -0.40460
       O     8.58467   -7.72299   -0.38826
      H1     8.14463   -6.90217   -0.61010
       H    11.78006    0.87890    3.58699
       O    12.28242    0.15121    3.98774
      H1    11.73041   -0.28743    4.68492
       H     9.05638    0.98254   -3.05299
       O     8.28454    0.48161   -3.00575
      H1     8.34505   -0.12362   -2.22958
       H    11.29759   -3.79873   -3.78055
       O    11.55589   -4.58534   -4.32922
      H1    10.80632   -5.23848   -4.26400
       H     9.25231    3.28665   -5.09353
       O     9.08857    3.59486   -4.19005
      H1     8.16191    3.29208   -4.14298
       H     5.10241    1.11665    1.60288
       O     4.80441    0.93824    0.72866
      H1     3.94138    1.41786    0.66010
       H     6.62450   -4.54642   -4.80342
       O     7.39810   -3.94749   -4.72181
      H1     7.16573   -3.05949   -5.09211
       H     8.45485    4.47662    2.56561
       O     8.27564    4.72045    1.67355
      H1     7.43468    4.30041    1.42203
       H     9.77872   -0.89455    6.39239
       O    10.28653   -0.64036    5.58187
      H1     9.94414   -1.29788    4.94747
       H    10.02599    0.72452    1.18326
       O     9.39322    0.32355    1.77690
      H1     9.70369   -0.60770    1.95164

