147
frame 7 | Written by MDAnalysis XYZWriter (release 2.4.3)
       H    -4.54450    4.15021   12.89879
       O    -4.59224    3.34656   12.44278
      H1    -4.71370    2.70546   13.13154
       H    -7.59425    1.30369   11.53721
       O    -6.98644    0.45669   11.52296
      H1    -6.28309    0.62430   12.16310
       H    -7.06659   -7.13333    9.77285
       O    -8.01272   -7.20299    9.69105
      H1    -8.22073   -8.14754    9.66391
       H    -3.36327   -2.79702   11.18765
       O    -2.95473   -1.93133   11.25194
      H1    -2.48152   -1.97060   12.09331
       H    -9.14525   -5.96362    5.04421
       O    -9.18188   -5.09830    4.60528
      H1    -8.53969   -4.49969    4.98099
       H    -7.49304    1.15709    6.31426
       O    -6.89630    1.89515    6.42391
      H1    -5.96738    1.57770    6.22446
       H    -1.63605    4.54132    9.50885
       O    -1.94223    4.31088    8.67589
      H1    -2.87402    4.04342    8.76236
       H    -4.26759   -5.53575   12.79027
       O    -4.24950   -5.17457   11.88616
      H1    -4.68791   -5.79736   11.27465
       H    -9.81566   -4.60744    8.98532
       O    -9.29945   -4.60762    8.16189
      H1    -9.27673   -5.53034    7.88623
       H    -6.83770   -3.78681   10.84883
       O    -6.76340   -4.09305   11.73431
      H1    -5.82316   -4.41145   11.89257
       H    -0.96957   -0.84526   13.62816
       O    -1.84163   -1.17251   13.87287
      H1    -2.45973   -0.38427   13.85808
       H    -8.34582    2.86997    9.99572
       O    -8.82808    2.43659   10.69665
      H1    -9.62741    2.90951   10.79751
       H    -0.30176   -3.61406    7.34086
       O    -1.12819   -3.13218    7.19951
      H1    -0.84496   -2.32608    6.66110
       H    -7.32557   -3.40990    8.64172
       O    -7.45321   -2.71103    9.35022
      H1    -6.52282   -2.44240    9.48610
       H    -2.24150   -6.71558    9.65681
       O    -1.63731   -7.12537   10.25977
      H1    -1.13093   -6.42917   10.73279
       H   -10.58169   -3.73606    7.16159
       O   -11.03709   -3.04641    6.67925
      H1   -10.30436   -2.46187    6.39508
       H    -0.43392   -3.54227   14.29507
       O    -1.36729   -3.85567   14.06428
      H1    -1.93017   -3.06144   13.96694
       H    -8.23007   -2.46878    5.78067
       O    -7.56990   -2.83934    5.16625
      H1    -7.76403   -2.67957    4.19565
       H    -4.94896   -7.51439   10.97844
       O    -5.30296   -7.09488   10.23188
      H1    -4.74406   -7.47820    9.52838
       H    -1.68515   -4.25214   10.83696
       O    -0.88804   -4.57968   11.23213
      H1    -1.13198   -4.68693   12.15143
       H    -7.77317    5.20650    9.27840
       O    -7.91375    4.28300    8.95590
      H1    -7.14676    4.28038    8.40900
       H    -9.95534    2.56860    6.47551
       O    -9.98351    1.59382    6.31229
      H1   -10.89292    1.39114    6.37785
       H    -2.08329   -1.07331    9.97338
       O    -1.23022   -0.89910    9.53714
      H1    -1.23294   -1.65756    8.87825
       H    -5.25633    5.91785    8.63780
       O    -5.48217    5.36672    7.90714
      H1    -4.99734    4.54684    7.92506
       H     0.87738   -0.70148    6.39119
       O     0.19307   -0.68247    5.68135
      H1    -0.20128    0.17388    5.49925
       H    -6.01603   -1.13478   13.09503
       O    -5.63816   -1.98890   13.44270
      H1    -6.19850   -2.62349   12.94636
       H    -5.45108   -0.41895    9.38447
       O    -5.12573   -1.32375    9.55356
      H1    -4.74102   -1.29620   10.42055
       H    -8.97818   -5.88700   10.69535
       O    -9.68046   -5.58351   11.30796
      H1    -9.27590   -4.90822   11.85329
       H    -6.36929   -0.22129    3.86276
       O    -6.81144    0.04806    3.01204
      H1    -7.09964    0.96958    3.16284
       H    -4.01049    0.50443    6.91745
       O    -4.49828    0.46044    6.08614
      H1    -3.96623    0.90087    5.40712
       H   -11.66134   -3.62918   13.24141
       O   -10.90131   -3.03237   13.25052
      H1   -10.82790   -2.57858   12.41157
       H    -2.51149   -4.51099    8.06235
       O    -2.97897   -5.23781    8.49831
      H1    -3.81313   -5.19302    8.00632
       H    -4.66349   -1.29158    5.15661
       O    -4.77099   -2.24970    4.80636
      H1    -5.74746   -2.31526    4.78143
       H    -6.79838    5.53893   13.51816
       O    -7.26753    4.75092   13.20529
      H1    -6.69371    4.23704   12.65354
       H    -2.38384   -3.91124    5.72257
       O    -2.38202   -4.61316    5.07717
      H1    -3.33198   -4.66695    4.77480
       H    -8.92380   -0.04669    7.51245
       O    -8.45910   -0.81696    7.12771
      H1    -7.93526   -1.26025    7.83953
       H     0.24819    0.23032    9.78079
       O     1.04617    0.83927    9.97911
      H1     1.34956    1.17193    9.04935
       H    -0.02554   -2.81642   11.87416
       O     0.37303   -1.92929   11.79538
      H1    -0.17999   -1.62739   11.07223
       H    -8.67365   -0.25307   13.85649
       O    -8.73032    0.66329   14.01000
      H1    -9.63187    0.73231   14.45247
       H    -5.36476   -2.07593   15.33491
       O    -5.27062   -2.25335   16.29383
      H1    -4.57889   -1.59282   16.55140
       H    -6.00295   -3.88396    6.29981
       O    -5.93978   -4.48388    7.02566
      H1    -5.62014   -5.25958    6.50190
       H    -9.33604   -2.54077   10.12354
       O   -10.23855   -2.29787   10.44994
      H1   -10.32123   -1.31763   10.31279
       H   -10.86272    0.29345    9.37010
       O   -10.05476    0.59865    8.93409
      H1    -9.59910    1.31507    9.46232
       H    -2.11447    1.66305   14.23594
       O    -2.94015    1.26334   14.54753
      H1    -2.83769    1.12607   15.44806
       H    -3.78129   -1.59698    3.38440
       O    -3.31867   -1.25451    2.54618
      H1    -4.01404   -1.22044    1.78427
       H    -6.64047    1.58021    8.24525
       O    -6.18817    1.09578    8.99739
      H1    -6.80311    0.98324    9.74842
       H    -4.76195    1.04078   14.24691
       O    -5.45393    0.95481   13.61312
      H1    -6.25947    1.39794   14.03833
       H    -5.53986   -6.07148   14.13528
       O    -4.62457   -6.39253   14.21924
      H1    -4.32197   -6.22949   15.09122
       H    -4.25647    3.02944   10.65709
       O    -4.34640    3.27287    9.69574
      H1    -5.01138    2.60535    9.45648

