147
frame 3 | Written by MDAnalysis XYZWriter (release 2.4.3)
       H    -2.54310   -2.31812   11.82249
       O    -3.39330   -1.83106   11.70078
      H1    -3.27309   -0.92690   11.47147
       H     3.90370   -3.12409   13.73164
       O     4.45895   -3.94156   13.64213
      H1     3.91849   -4.66447   13.93792
       H     0.22552  -12.43202    5.72787
       O     0.32713  -11.58135    6.18603
      H1     1.26323  -11.37976    6.05593
       H    -0.16060   -5.84188    6.30916
       O     0.49398   -6.56471    6.40229
      H1     0.05814   -7.28184    6.89669
       H     0.02875  -12.49858   11.49598
       O    -0.39268  -12.90224   10.69388
      H1    -0.27976  -12.19147   10.04018
       H     1.46063   -5.77452    3.57245
       O     1.83543   -6.63927    3.86154
      H1     1.43733   -6.69469    4.72947
       H     5.46199   -3.68675    8.60457
       O     6.20537   -3.87283    9.21697
      H1     5.92735   -4.49902    9.92002
       H     3.95837   -2.86168    7.36353
       O     4.46514   -3.71916    7.36858
      H1     3.79635   -4.38100    7.60015
       H     1.03317   -8.41235   13.16794
       O     1.73198   -8.50613   13.82807
      H1     2.53803   -8.10103   13.48006
       H    -0.44983   -3.20174    3.94782
       O    -0.44819   -2.28885    4.42953
      H1    -0.07022   -2.49282    5.29572
       H    -5.48095   -6.57584   12.59178
       O    -5.77763   -5.70695   12.25953
      H1    -6.49408   -6.02091   11.72745
       H     4.56849   -3.49137    5.63106
       O     4.34904   -3.19346    4.76184
      H1     3.45856   -3.45304    4.55812
       H    -0.93175   -9.89328   11.78059
       O    -0.25773   -9.13964   11.77922
      H1     0.67586   -9.51998   11.66456
       H     1.52455   -4.19770    8.56677
       O     0.87581   -3.47751    8.88338
      H1     0.97093   -2.76438    8.18991
       H    -2.29109   -6.66262    9.79133
       O    -2.62079   -7.50992   10.01578
      H1    -2.33091   -8.11047    9.29112
       H    -5.23558   -6.17921    5.69805
       O    -4.76317   -5.34190    5.62642
      H1    -5.24037   -4.86143    4.93128
       H     4.48529  -11.24873    8.83885
       O     3.73068  -11.87109    8.50421
      H1     4.17495  -12.72171    8.18580
       H    -3.15636  -10.18232   12.76997
       O    -2.60642  -10.78296   12.22767
      H1    -3.12296  -10.83268   11.47499
       H    -0.77951   -4.37739   12.74380
       O    -1.75143   -4.10301   12.80810
      H1    -1.77747   -3.83423   13.72494
       H     5.15632   -9.15515    6.36731
       O     5.75401   -9.81710    6.71440
      H1     6.67437   -9.54737    6.49855
       H    -4.29625   -8.65483   12.76264
       O    -5.11037   -8.48454   12.17906
      H1    -4.87380   -8.41013   11.18775
       H    -3.04134   -7.17755   12.21382
       O    -2.66635   -6.78935   13.01902
      H1    -2.54632   -5.81660   12.77776
       H    -1.67581   -8.25363   14.32690
       O    -1.19929   -8.37874   15.18195
      H1    -0.67682   -9.15070   14.97573
       H     1.36387  -10.59297    9.12776
       O     0.53900  -10.91232    8.83693
      H1     0.67457  -11.29614    7.91913
       H     0.65060  -11.58412   13.81522
       O     0.93101  -12.07645   13.05902
      H1     1.22973  -12.88513   13.52864
       H    -2.03355   -9.15585    7.38148
       O    -1.22826   -8.76017    7.73674
      H1    -0.68231   -9.49737    8.08711
       H     3.70877   -7.08952   10.95262
       O     3.16146   -7.34800   10.21292
      H1     2.26229   -7.17061   10.51371
       H     0.68474   -1.29734   11.31409
       O     1.53862   -1.51654   10.96918
      H1     1.51735   -2.26927   10.31786
       H     1.74498   -1.31187    6.97157
       O     0.83703   -1.68365    6.87542
      H1     0.27977   -0.87552    6.99288
       H     4.50959   -7.05655    5.47907
       O     3.95631   -7.75632    5.90554
      H1     3.30075   -7.86847    5.23617
       H     5.14782   -4.83705   12.26053
       O     5.35330   -5.46668   11.54115
      H1     6.23946   -5.79857   11.76954
       H     2.97919  -10.49693   11.46925
       O     2.31229   -9.86455   11.08050
      H1     2.76159   -9.01008   10.94500
       H     4.57065   -6.54577   12.90218
       O     3.94668   -7.13885   13.35276
      H1     4.51798   -7.92105   13.33505
       H    -4.66058   -7.52757    9.04198
       O    -5.22853   -8.27846    8.93002
      H1    -4.72503   -9.07516    9.11159
       H    -1.10075   -4.44751    9.24765
       O    -1.88048   -4.95400    8.96040
      H1    -2.64330   -4.35713    9.10207
       H    -0.43007  -10.17928    4.99745
       O    -0.19296   -9.70710    4.16824
      H1    -0.65612   -8.86531    4.37649
       H     3.13081  -10.93712    7.20989
       O     2.77533  -10.28661    6.60567
      H1     3.25081   -9.47084    6.73865
       H     0.81382   -5.91467   12.47268
       O     0.80857   -5.01628   12.83955
      H1     1.52131   -5.17028   13.49512
       H    -2.49169   -4.64038    5.62234
       O    -1.61462   -4.91130    6.06974
      H1    -1.85371   -4.74109    7.02458
       H     1.56666   -9.71481    3.94878
       O     2.49675   -9.51500    3.62664
      H1     3.10631  -10.00161    4.17323
       H    -2.02791   -6.58296    5.23760
       O    -2.08500   -7.17183    4.45801
      H1    -3.02106   -7.39639    4.37212
       H    -1.30493   -5.50566   16.23153
       O    -0.52604   -5.94688   16.52497
      H1    -0.48899   -6.61181   15.83446
       H     0.10653   -7.63675   10.50576
       O     0.62201   -6.87287   10.36858
      H1     0.31829   -6.52927    9.55604
       H     2.21293   -5.82343    7.33362
       O     2.58429   -5.52007    8.17862
      H1     2.73920   -6.21365    8.82344
       H    -5.19950   -3.75705    8.55747
       O    -4.35460   -3.90760    8.08755
      H1    -4.55148   -4.50685    7.31664
       H    -4.67909  -10.92564   10.51921
       O    -4.19840  -10.77753    9.74329
      H1    -4.42075  -11.58714    9.19204
       H    -1.95748   -4.12024    2.71504
       O    -1.23385   -4.67780    3.05063
      H1    -1.62698   -5.55155    3.42030
       H     1.40401   -5.27575   16.38334
       O     2.03528   -4.94217   15.71354
      H1     1.77999   -4.02211   15.70472
       H     1.84113   -8.81752   15.50319
       O     2.14234   -8.83959   16.47178
      H1     2.71852   -8.11121   16.53674

