147
frame 10 | Written by MDAnalysis XYZWriter (release 2.4.3)
       H    -5.57673    7.12232   -8.28738
       O    -5.91498    6.24125   -7.99899
      H1    -6.39073    6.45172   -7.20014
       H   -10.29443    8.55544  -10.95782
       O    -9.65235    8.28093  -11.63468
      H1    -9.95690    7.38547  -11.86865
       H    -8.37331   11.96051  -12.66979
       O    -8.61633   12.82820  -12.97498
      H1    -9.08865   13.18314  -12.24232
       H    -4.18075   13.52840  -10.43675
       O    -4.17443   12.60774  -10.70737
      H1    -3.96685   12.56811  -11.64483
       H    -8.90319    9.07246   -8.05936
       O    -8.11674    8.55693   -8.33791
      H1    -8.37252    7.62840   -8.53635
       H    -7.47813    8.72882   -5.18005
       O    -7.07683    9.34653   -5.88162
      H1    -7.48064    9.08693   -6.74351
       H   -10.34780   10.37575   -7.08230
       O   -10.44995    9.42897   -6.82376
      H1   -10.56650    9.38625   -5.86827
       H    -6.86771    5.33970   -4.77011
       O    -7.10596    5.98435   -5.50283
      H1    -7.90249    5.55113   -5.88071
       H    -4.20736    7.98839   -5.28870
       O    -4.43050    8.89179   -4.93703
      H1    -5.33143    9.07161   -5.15790
       H    -3.97239    9.80965   -3.29971
       O    -3.82515   10.65939   -2.85332
      H1    -4.03057   10.44835   -1.90143
       H    -7.31376   12.00237   -3.97274
       O    -7.16427   12.81993   -4.39477
      H1    -7.33253   12.76035   -5.36061
       H   -11.96201    8.94817   -7.22143
       O   -12.79024    8.59405   -7.60424
      H1   -13.43317    9.21132   -7.31357
       H   -11.21844   16.03755   -4.83330
       O   -11.99814   16.52206   -5.08416
      H1   -11.65678   17.45987   -5.04714
       H    -6.60840   14.11070  -10.88440
       O    -7.17501   14.74528  -10.45533
      H1    -6.70064   14.98930   -9.67560
       H    -8.46196   16.97690  -12.21838
       O    -8.37110   17.55533  -11.42871
      H1    -8.32244   17.07370  -10.61846
       H    -9.54951   17.33883   -7.99250
       O   -10.24155   17.48449   -8.63920
      H1   -11.08141   17.09785   -8.25327
       H    -5.45378   10.95905   -8.56917
       O    -4.99548   11.48670   -7.88033
      H1    -4.82081   12.32331   -8.26430
       H    -7.03546   10.11165  -11.28296
       O    -7.58891   10.37519  -11.98901
      H1    -8.35954    9.78191  -11.87593
       H    -4.42801   11.26987  -13.87435
       O    -4.16217   12.14894  -13.54004
      H1    -4.99838   12.65512  -13.56809
       H    -7.84960   18.02194   -6.93761
       O    -8.11506   17.13612   -7.11863
      H1    -7.37515   16.49982   -7.31523
       H    -7.84246   16.06822   -3.70756
       O    -7.16060   15.72810   -3.07534
      H1    -7.09613   14.80166   -3.28319
       H    -2.14030    9.75800  -10.64942
       O    -2.28589   10.48151  -11.22787
      H1    -2.82133   11.17029  -10.69650
       H    -3.79317   15.72318   -5.43006
       O    -4.66434   15.94611   -5.14229
      H1    -4.62271   15.95600   -4.17764
       H    -4.50945   12.25158   -2.86363
       O    -4.75119   13.12341   -3.14985
      H1    -5.45265   13.09271   -3.74540
       H    -4.69020   15.89608   -9.60219
       O    -4.19399   15.16614   -9.89089
      H1    -3.62743   15.39360  -10.64059
       H    -9.58086   14.34559   -2.06831
       O    -9.68574   14.61219   -1.15664
      H1   -10.44634   15.22727   -1.23349
       H    -8.54668   17.03123   -5.47056
       O    -8.99193   16.92368   -4.59479
      H1    -8.71050   17.76790   -4.14471
       H    -1.61611   11.06218   -6.35377
       O    -1.17649   11.89905   -6.25923
      H1    -1.42560   12.33112   -7.11610
       H    -6.38676   14.50176   -7.43851
       O    -6.10615   15.36354   -7.78157
      H1    -5.44720   15.61125   -7.10743
       H    -4.61531    5.87523   -6.36535
       O    -3.96997    6.48531   -5.95922
      H1    -3.49525    5.94156   -5.33377
       H    -3.44028   10.43349   -7.78818
       O    -2.69071    9.74330   -7.64853
      H1    -3.03131    9.07604   -7.09018
       H   -10.23711   12.22612   -8.93382
       O   -10.28747   11.79995   -8.03785
      H1   -11.10771   12.15867   -7.73013
       H    -7.16198   13.98778  -13.23221
       O    -6.19433   14.21332  -13.33826
      H1    -6.21598   15.20161  -13.35019
       H   -13.23630   12.94814   -7.99503
       O   -12.60823   13.18815   -7.29491
      H1   -12.43069   14.15662   -7.38844
       H    -5.26398   13.39708   -1.23943
       O    -5.42565   13.23072   -0.27434
      H1    -5.05005   13.95143    0.17371
       H    -6.92603    9.22606  -13.19415
       O    -6.44530    8.71988  -13.80734
      H1    -7.17741    8.54570  -14.43259
       H    -3.67129    7.61106  -10.21531
       O    -4.06043    7.80985   -9.38844
      H1    -3.29399    8.27531   -8.90680
       H   -11.54200    9.53102   -3.70899
       O   -11.05400    8.87376   -4.24411
      H1   -11.28222    7.97399   -4.04236
       H    -6.83584   12.25576   -7.28314
       O    -7.41875   13.02467   -7.15686
      H1    -8.35230   12.81275   -7.52846
       H    -3.76583   19.23471   -4.68079
       O    -3.40434   18.49433   -5.20951
      H1    -3.96292   17.74661   -4.96709
       H    -5.27857    9.34432   -9.68214
       O    -6.14470    9.80803   -9.67304
      H1    -6.76623    9.23873   -9.17000
       H    -2.52908   14.70822   -5.73267
       O    -2.33580   15.36105   -6.44910
      H1    -1.42241   15.13805   -6.65786
       H    -3.34722   13.59134   -3.80794
       O    -2.50140   13.76090   -4.28356
      H1    -1.96118   12.94127   -4.28482
       H    -7.53903   11.05275   -2.00696
       O    -7.40704   10.41423   -2.76091
      H1    -6.47601   10.28014   -2.77722
       H    -1.87056   12.86017   -9.68084
       O    -2.01908   13.20758   -8.75782
      H1    -2.52580   14.03269   -8.90779
       H   -10.39047   13.96119   -9.98533
       O    -9.68178   13.36792  -10.31924
      H1    -8.88532   13.87210  -10.00432
       H    -4.92795   18.81112   -8.62606
       O    -4.53666   17.98619   -8.26041
      H1    -4.16041   18.32243   -7.46088
       H    -8.20093    8.82600   -3.31328
       O    -8.44431    8.13226   -3.91436
      H1    -9.37412    8.31961   -4.18314
       H   -10.03740   12.69943   -3.50931
       O    -9.66382   13.55694   -3.68685
      H1    -8.79436   13.47966   -4.09806

