147
frame 7 | Written by MDAnalysis XYZWriter (release 2.4.3)
       H    -5.27916   -2.36651  -11.54906
       O    -4.39467   -2.38612  -11.11419
      H1    -3.73701   -2.29371  -11.81765
       H    -4.43623   -2.60266   -7.82406
       O    -3.84031   -1.86982   -7.88658
      H1    -4.13781   -1.40307   -8.67113
       H    -3.76554   -2.11042  -18.19776
       O    -3.30310   -2.54000  -17.41354
      H1    -3.73294   -2.05619  -16.67322
       H     3.56892   -4.82522  -10.93477
       O     3.07028   -5.22506  -11.69614
      H1     2.28615   -5.60182  -11.18664
       H     0.27173   -4.68458  -10.48051
       O    -0.13838   -3.85695  -10.61859
      H1    -0.76040   -3.69156   -9.86617
       H    -0.76386   -6.33522  -10.14047
       O    -1.63388   -6.73131   -9.89017
      H1    -2.30627   -6.04260  -10.11521
       H    -1.01739    4.76279  -13.72775
       O    -1.77765    5.30978  -13.54756
      H1    -1.91931    5.38404  -12.61837
       H     0.92536   -6.97132  -10.94675
       O     0.95471   -6.22917  -10.33240
      H1     1.27201   -6.53962   -9.50034
       H     4.76086   -3.25499   -9.66582
       O     3.87003   -3.62894   -9.51536
      H1     3.26511   -2.93371   -9.20683
       H     1.47762    3.43744  -15.13992
       O     0.95070    4.00203  -14.48783
      H1     0.82953    3.36388  -13.75375
       H    -4.57651   -0.10117  -15.50957
       O    -4.79374   -1.05275  -15.49726
      H1    -5.29778   -1.27473  -14.65186
       H     1.05171    3.90521   -9.84471
       O     1.32989    3.23110   -9.20309
      H1     0.86386    2.46094   -9.43296
       H     4.54168    2.05702  -14.18159
       O     3.98791    1.28776  -14.09265
      H1     4.53885    0.56222  -14.47277
       H    -1.01767   -2.82786   -8.08227
       O    -1.69207   -3.33245   -8.51262
      H1    -2.52049   -2.80274   -8.30360
       H     0.65103   -0.43161  -15.29282
       O     1.07986   -0.38760  -16.12134
      H1     1.35178    0.53500  -16.25517
       H    -7.29525   -2.75199  -13.27774
       O    -6.70624   -2.01767  -13.36810
      H1    -6.93448   -1.44122  -12.63020
       H     2.84746   -2.02107  -11.81559
       O     3.33617   -2.64180  -12.38923
      H1     3.00043   -3.53539  -12.22128
       H    -2.22521   -4.55863  -15.09351
       O    -2.96282   -4.81186  -15.69378
      H1    -3.47122   -4.07188  -16.10836
       H     1.04658    2.39967  -11.82176
       O     0.22515    2.81993  -12.06093
      H1    -0.29488    2.17606  -12.55310
       H     0.54834   -0.31463  -10.67635
       O     1.45725   -0.55019  -10.93135
      H1     1.89863    0.29502  -11.15879
       H     0.07721   -7.04977  -13.29502
       O     0.86567   -6.47963  -13.21869
      H1     1.51901   -6.90205  -13.81109
       H     3.14893    1.86447  -12.56294
       O     2.90825    1.80212  -11.60489
      H1     2.94938    2.74330  -11.26748
       H    -3.19897    4.00561  -11.36981
       O    -2.56103    4.66878  -11.05422
      H1    -3.01961    5.44159  -10.74944
       H    -2.63831    1.16553  -13.07943
       O    -1.90152    1.19468  -13.66216
      H1    -1.55183    0.26752  -13.58300
       H    -1.55307    4.07502  -16.74352
       O    -0.57457    3.99927  -16.74042
      H1    -0.18513    3.92745  -15.83733
       H     0.77157   -0.85215  -12.63749
       O     0.34060   -0.91306  -13.48367
      H1    -0.45619   -1.43220  -13.24046
       H    -3.63129    1.96004  -10.62519
       O    -3.62504    2.21832  -11.55539
      H1    -4.58110    2.27691  -11.56495
       H    -1.43224    0.04547   -9.19739
       O    -1.12725   -0.31682  -10.03238
      H1    -1.15101   -1.23301   -9.90318
       H    -0.66111   -5.54621  -17.86865
       O    -0.99876   -4.69122  -17.55444
      H1    -1.72507   -4.82816  -16.95975
       H    -2.72760    0.59634  -16.67834
       O    -3.24160    1.16001  -16.06974
      H1    -2.71740    1.20642  -15.22825
       H    -3.34840    2.80682  -16.58945
       O    -3.27564    3.71523  -16.95111
      H1    -3.79746    4.36654  -16.48368
       H    -0.78254   -0.58911  -17.16706
       O    -1.57465   -0.35430  -17.60112
      H1    -2.26168   -0.98961  -17.55942
       H    -4.88567   -4.82573  -10.52501
       O    -4.52635   -5.64520  -10.80510
      H1    -4.78566   -5.76826  -11.73809
       H    -3.70899   -6.34147  -13.52872
       O    -4.65448   -6.49051  -13.39542
      H1    -5.23333   -5.97800  -13.98577
       H     4.42462   -3.68741  -13.81686
       O     5.17730   -4.30292  -14.03298
      H1     4.91692   -4.83396  -14.81259
       H     0.75750   -2.91824  -18.97397
       O     1.66386   -2.96403  -18.66898
      H1     1.73271   -2.28036  -18.01377
       H    -1.44784   -3.04323  -11.98687
       O    -1.74143   -2.68611  -12.81235
      H1    -1.26362   -3.32070  -13.43787
       H    -5.80218   -0.13519   -9.55280
       O    -4.89983    0.05237   -9.85545
      H1    -4.71360   -0.65401  -10.42633
       H    -7.48122   -2.86650  -16.02693
       O    -6.62372   -3.17955  -16.35683
      H1    -5.96159   -2.38168  -16.18472
       H     2.90900    1.77578  -15.33702
       O     2.13352    1.96314  -15.92699
      H1     2.41136    2.67108  -16.55396
       H     1.53047   -7.54616  -16.57202
       O     0.89164   -7.15351  -15.96062
      H1     0.99553   -6.19957  -15.94115
       H    -1.57691    3.82198   -8.32145
       O    -1.53398    3.22937   -9.08066
      H1    -1.68411    3.80828   -9.83448
       H     2.19821   -3.42355  -15.84953
       O     1.75606   -4.25240  -16.01478
      H1     1.37339   -4.02915  -16.90589
       H     2.35315   -1.02850  -15.09245
       O     3.02942   -1.70180  -14.87800
      H1     2.92063   -1.74210  -13.88551
       H    -2.07452   -7.39716  -12.23600
       O    -1.76250   -7.33126  -13.14627
      H1    -1.61834   -8.22493  -13.49189
       H    -0.15566   -4.86049  -13.81148
       O    -0.51119   -4.39635  -14.58674
      H1     0.28062   -4.09936  -15.06604
       H    -2.50051    0.97584   -7.45461
       O    -1.50782    0.98352   -7.58456
      H1    -1.41859    1.74985   -8.14673
       H     3.80614   -1.52038  -16.72448
       O     3.84704   -1.34675  -17.65499
      H1     4.02006   -0.39781  -17.82479
       H     2.65014   -0.94292   -8.06501
       O     1.99712   -1.63894   -8.41154
      H1     1.79371   -1.28643   -9.32411

