147
frame 11 | Written by MDAnalysis XYZWriter (release 2.4.3)
       H    -5.46360  -16.48100   11.50023
       O    -4.97400  -16.51625   10.66126
      H1    -4.90903  -17.46138   10.39843
       H    -8.04906   -8.54210    9.22382
       O    -8.97398   -8.45142    8.83358
      H1    -9.24877   -9.39696    8.71602
       H    -5.32221  -16.95393   13.34800
       O    -5.64200  -16.07988   13.40485
      H1    -4.88984  -15.48466   13.38461
       H     1.05380  -11.39450   10.30557
       O     0.84670  -12.26025   10.72991
      H1     0.57347  -12.88830   10.04293
       H   -10.05855   -8.03533   16.95944
       O   -10.31119   -8.74484   16.35689
      H1    -9.89604   -8.76630   15.51140
       H    -8.91249  -15.22806   17.86049
       O    -7.90740  -15.34684   17.77624
      H1    -7.63088  -14.59877   17.28211
       H    -9.69469  -11.99856   10.00349
       O    -8.92750  -11.48414    9.79735
      H1    -8.23240  -12.13763    9.73996
       H    -7.97366  -10.86963   11.60239
       O    -7.53687  -10.94455   12.46170
      H1    -6.58850  -10.80985   12.22784
       H   -10.33312   -8.57102   11.49164
       O   -10.36769   -9.50759   11.79904
      H1   -11.13057   -9.83733   11.25264
       H    -3.99614   -5.63893   11.56296
       O    -3.77907   -4.88404   10.99202
      H1    -4.35195   -4.99017   10.17880
       H    -8.08155  -12.71112   13.32726
       O    -8.75230  -13.30888   13.82228
      H1    -9.33895  -12.71486   14.31320
       H    -6.59388   -4.44137   12.20987
       O    -6.70301   -4.44940   13.15346
      H1    -5.83541   -4.23585   13.60112
       H    -4.80689  -14.55657   18.10437
       O    -4.57356  -15.43818   18.39642
      H1    -5.08309  -15.60305   19.20588
       H    -5.05279  -12.25406   18.26741
       O    -5.03646  -12.77415   17.42840
      H1    -4.20181  -12.44925   17.05381
       H     0.96936   -7.56377   12.34184
       O     1.25283   -6.74223   12.81405
      H1     1.60069   -6.23787   12.08585
       H    -2.59026   -7.96694   10.53170
       O    -1.74277   -7.47893   10.29275
      H1    -1.87023   -6.56167    9.95655
       H    -0.32709   -9.75423   12.44551
       O    -0.02731   -9.00064   11.89679
      H1    -0.75194   -8.59363   11.49253
       H    -6.17634   -8.29707   15.87749
       O    -6.42413   -7.33614   15.88475
      H1    -7.00412   -7.24481   15.14695
       H    -1.17102  -11.45212   13.70244
       O    -1.07835  -10.55530   13.95199
      H1    -0.37030  -10.54935   14.62134
       H    -3.16559  -10.92173   15.78925
       O    -3.36265  -10.16219   15.19232
      H1    -2.49878  -10.07796   14.74616
       H    -4.12964  -13.16421   12.24060
       O    -4.07410  -14.14746   12.37825
      H1    -3.93877  -14.40975   11.44280
       H    -0.53575   -6.89442   17.56399
       O    -1.05630   -7.70906   17.32627
      H1    -0.77128   -8.06558   16.48240
       H    -5.76932   -8.44680   10.00246
       O    -6.35735   -8.58891    9.24822
      H1    -5.81013   -8.95257    8.57927
       H     1.21406  -11.19931   15.99885
       O     0.56874  -10.46948   16.15478
      H1     0.51665  -10.43951   17.09809
       H    -5.09846   -7.86377   17.99264
       O    -5.32270   -8.70925   18.35828
      H1    -5.96449   -9.10629   17.83224
       H    -7.87863  -16.42213   16.12041
       O    -7.92782  -16.73632   15.17277
      H1    -6.99475  -16.75822   14.87931
       H    -1.99814  -11.99507   10.27589
       O    -1.70735  -11.76823   11.14868
      H1    -0.79859  -12.08994   11.19589
       H    -3.69100  -11.19712   12.62272
       O    -4.62023  -11.01722   12.85946
      H1    -4.62764  -10.69180   13.83252
       H   -11.20494  -11.62278   14.61646
       O   -10.76555  -12.19227   15.23267
      H1   -10.69103  -11.76302   16.07158
       H    -2.16785   -9.10777   18.20249
       O    -2.70932   -9.41086   18.97803
      H1    -3.64268   -9.26235   18.69006
       H    -7.87200   -5.43468   13.82017
       O    -8.49420   -6.13264   14.23202
      H1    -9.07613   -5.58571   14.76457
       H    -1.19914  -13.74735   14.25813
       O    -2.06319  -13.35200   14.09914
      H1    -2.51609  -13.73069   13.33941
       H    -6.75109  -11.10534   15.80781
       O    -6.76503  -10.14563   15.95898
      H1    -7.41921   -9.71565   15.39691
       H     0.91313   -9.03875    9.19936
       O     0.14396   -8.68854    8.72776
      H1    -0.49194   -8.43633    9.36473
       H    -5.93913   -5.49984    8.25506
       O    -5.91242   -5.72884    9.18433
      H1    -6.23165   -6.64375    9.25693
       H    -9.17173  -14.39485   10.92668
       O    -8.27984  -14.67570   11.00887
      H1    -7.98259  -14.33151   11.83068
       H     1.39632  -13.86896   14.07173
       O     0.74903  -13.88116   14.76927
      H1     0.68429  -14.85632   14.97000
       H    -4.40490   -9.49893   11.46160
       O    -4.24202   -8.68207   10.99402
      H1    -4.41156   -7.99978   11.66534
       H    -8.46560   -8.02976   14.08797
       O    -8.62708   -8.94799   14.23615
      H1    -8.22884   -9.35190   13.46178
       H    -8.75997   -5.31143   17.10558
       O    -8.18289   -5.99708   17.49881
      H1    -7.59442   -6.33800   16.81981
       H    -6.41986  -12.97190   16.36417
       O    -7.39712  -13.04305   16.29106
      H1    -7.53084  -13.28798   15.37870
       H    -3.57128   -6.84491   16.03568
       O    -3.38384   -7.25436   15.14752
      H1    -3.31171   -8.25170   15.22967
       H    -3.37863   -5.37093   17.59919
       O    -4.04131   -6.05267   17.48441
      H1    -4.83188   -5.58550   17.19687
       H    -5.35925  -16.50445   16.83963
       O    -5.31020  -17.26822   16.20404
      H1    -4.37927  -17.28804   15.90674
       H    -5.45483  -12.31825    9.00363
       O    -6.35834  -12.62485    8.83642
      H1    -6.50726  -12.39414    7.89688
       H    -2.82154  -11.35967    8.37011
       O    -3.73231  -11.62013    8.42433
      H1    -4.20496  -10.92576    8.01604
       H    -5.11543   -6.07899   13.05477
       O    -4.81272   -7.00284   13.00015
      H1    -4.32456   -7.16231   13.80404
       H   -10.03466  -10.43182   17.43685
       O    -9.98528  -11.37989   17.69005
      H1    -9.12943  -11.68035   17.31891
       H    -2.06059  -12.91341   15.80644
       O    -2.30939  -12.46469   16.62863
      H1    -1.86827  -12.84540   17.38189

