147
frame 5 | Written by MDAnalysis XYZWriter (release 2.4.3)
       H   -15.43180   -5.68822    9.89109
       O   -16.06982   -6.41615    9.89469
      H1   -16.97549   -5.95128    9.78175
       H   -11.71505   -7.33491   17.25001
       O   -12.65941   -7.47623   17.21614
      H1   -12.96174   -7.33256   18.10431
       H   -10.82634   -9.75090   16.82036
       O   -11.52505  -10.12051   17.42112
      H1   -12.12850   -9.41274   17.59661
       H   -16.72230   -4.97515   12.85092
       O   -16.08769   -4.29462   13.07863
      H1   -16.35139   -4.06868   13.99145
       H    -6.61615   -7.98745   10.45571
       O    -7.39700   -8.14809    9.89870
      H1    -7.48849   -9.08088    9.86263
       H    -7.59914   -5.91086    6.98598
       O    -7.69558   -4.98105    7.17591
      H1    -7.08501   -4.44196    6.71678
       H   -14.02301   -1.16399   15.72403
       O   -13.12541   -0.97987   15.38395
      H1   -13.10015   -1.72375   14.73848
       H   -13.19699   -7.45709    8.88483
       O   -13.77506   -8.10095    9.32697
      H1   -14.48727   -7.48448    9.59162
       H   -10.79052   -3.91735   16.59004
       O   -11.69673   -3.97926   16.93347
      H1   -12.11497   -3.98818   16.07639
       H    -9.34836   -8.43260   16.34054
       O    -9.49584   -9.25619   15.90242
      H1    -9.54377   -9.16473   14.97539
       H   -16.36418   -2.84956   12.05247
       O   -16.44588   -2.01811   11.56613
      H1   -17.40417   -1.91297   11.45953
       H   -17.02125   -7.67439   11.57482
       O   -17.80450   -7.99964   12.00357
      H1   -18.39985   -8.03806   11.23240
       H    -8.02510  -11.10429   10.24764
       O    -7.10069  -11.24414    9.92526
      H1    -7.15563  -11.34565    8.97612
       H   -10.29327  -10.91038   10.70237
       O    -9.99710  -11.51967   11.40100
      H1   -10.47015  -12.40258   11.22369
       H    -4.48675   -5.78453   13.94183
       O    -4.65948   -5.31225   13.12064
      H1    -4.77853   -6.01170   12.46154
       H   -10.34070   -4.64195    9.07278
       O    -9.64661   -5.28856    9.14260
      H1    -8.96787   -5.16405    8.44174
       H   -15.15549   -7.52274    6.51302
       O   -15.30675   -8.23611    7.11451
      H1   -14.87873   -8.08813    7.92182
       H    -7.61105   -4.14737   12.55608
       O    -7.50279   -4.32844   13.50019
      H1    -6.58530   -4.57177   13.69458
       H   -13.64178   -3.86253   10.42821
       O   -14.59755   -4.14802   10.52596
      H1   -15.17131   -3.40069   10.31988
       H   -11.45860  -11.91923   15.13833
       O   -10.78291  -11.97282   14.48104
      H1   -11.02370  -11.32771   13.86575
       H    -8.88195   -4.53691   10.43526
       O    -8.36912   -3.91808   10.97336
      H1    -7.71478   -3.44234   10.42304
       H   -10.17628   -3.96635    6.17827
       O   -10.90709   -3.33159    6.36062
      H1   -11.48781   -3.25707    5.55605
       H    -6.99617   -8.35777   14.97808
       O    -7.11207   -7.45910   14.67991
      H1    -7.58665   -7.51929   13.82074
       H    -4.56462   -8.01437   11.49164
       O    -5.05150   -7.36840   11.08637
      H1    -4.52706   -7.29829   10.26880
       H   -14.03830   -8.25351   11.06796
       O   -14.63421   -8.33487   11.90395
      H1   -14.44837   -7.47702   12.31453
       H   -13.49803  -10.94107   11.08996
       O   -12.84105  -10.57098   10.53306
      H1   -13.15838   -9.70655   10.20735
       H   -13.84844   -1.12945    9.00585
       O   -13.37284   -1.13939    8.18942
      H1   -12.77282   -1.91965    8.28863
       H   -10.51615   -6.81928    5.27725
       O   -10.85039   -7.47590    5.93390
      H1   -10.97666   -8.25624    5.50376
       H   -13.20454   -1.54676   11.73664
       O   -13.82017   -1.30523   11.04470
      H1   -14.72863   -1.42078   11.39137
       H    -5.08481   -1.69688   13.07042
       O    -6.03322   -1.46646   13.23693
      H1    -6.48234   -2.32133   13.21482
       H    -6.26185   -2.08780    9.44678
       O    -6.14799   -2.75448   10.13107
      H1    -5.38145   -2.45400   10.62800
       H    -7.93546   -6.99820   11.39116
       O    -8.43321   -6.93455   12.28511
      H1    -8.21468   -6.10709   12.71153
       H   -11.63166   -6.17173    8.98807
       O   -12.19430   -6.13674    8.18536
      H1   -11.57819   -6.66939    7.52161
       H   -13.68616   -6.19348   16.69231
       O   -14.14900   -5.52270   16.19827
      H1   -15.00748   -5.90321   16.13068
       H   -12.90458   -3.59630   13.46304
       O   -12.23966   -2.87954   13.33980
      H1   -11.66581   -3.25407   12.65096
       H    -8.52615   -2.45384   17.09395
       O    -9.16618   -2.84114   16.41458
      H1    -9.14724   -2.17978   15.73272
       H   -10.96947   -5.93795   11.79310
       O   -11.68337   -5.53416   11.35002
      H1   -12.32915   -5.46180   12.04164
       H   -10.04634   -0.33961    7.12021
       O    -9.51991   -1.11005    7.15327
      H1   -10.00253   -1.92427    6.88948
       H    -9.54817   -8.49201   12.72439
       O    -9.91974   -9.24085   13.17451
      H1    -9.92681   -9.96550   12.50917
       H    -8.52094   -4.60575   16.38648
       O    -7.91972   -5.36467   16.55001
      H1    -7.58262   -5.54218   15.65818
       H    -9.94752   -7.33370   18.42225
       O    -9.96809   -7.14325   17.49288
      H1    -9.14891   -6.64595   17.28123
       H    -8.57016   -0.45954   13.42260
       O    -8.93582   -0.24977   14.28310
      H1    -9.79639    0.14405   14.11870
       H    -5.52399   -4.14397    9.29779
       O    -5.02898   -4.91085    9.02266
      H1    -5.72895   -5.39759    8.48983
       H    -9.52901   -1.88951   11.17236
       O   -10.42729   -1.74106   10.78961
      H1   -10.48290   -0.83102   10.46286
       H    -7.53835   -7.85246    8.20500
       O    -7.31144   -7.79503    7.21630
      H1    -7.97698   -8.33185    6.76455
       H   -13.86191   -5.20155    7.47800
       O   -14.24415   -4.84105    6.69220
      H1   -14.44547   -3.88698    6.76574
       H   -13.68776   -5.57625   14.31051
       O   -13.67602   -5.23457   13.39639
      H1   -14.54308   -4.89782   13.14740
       H   -11.25579   -2.70554    9.46844
       O   -11.77812   -3.34700    8.97288
      H1   -11.49732   -3.37830    8.04260
       H   -14.26749  -10.19697   13.57000
       O   -14.09780   -9.71679   14.40735
      H1   -13.77197   -8.86536   14.02437

