147
frame 8 | Written by MDAnalysis XYZWriter (release 2.4.3)
       H    -0.96981   16.00451   -2.26605
       O    -1.12355   16.46165   -1.44649
      H1    -1.13027   17.38628   -1.62070
       H     2.28231   14.88721   -1.85024
       O     1.64005   14.18550   -2.03150
      H1     0.74265   14.48950   -1.82225
       H     2.88936   10.09796   -2.53630
       O     2.82088    9.62915   -3.37753
      H1     3.38529    8.86305   -3.36461
       H    -2.14153   13.02905    3.33018
       O    -2.15110   13.97160    3.12011
      H1    -3.04289   14.15477    2.76901
       H     3.29457   13.36072   -5.84642
       O     4.22277   13.47048   -6.10565
      H1     4.21401   14.06751   -6.84125
       H     3.09178   18.30988   -3.51510
       O     2.85513   18.31505   -2.58417
      H1     1.96710   18.64599   -2.53073
       H     7.70135   10.97117   -1.69117
       O     6.78579   10.75873   -1.85726
      H1     6.60523   11.05103   -2.74943
       H     3.27662   19.37065   -0.01461
       O     2.88335   19.04767    0.80622
      H1     2.22684   18.31678    0.54764
       H    -1.25603   15.60561   -5.27694
       O    -1.24002   16.17126   -4.47770
      H1    -0.62936   16.89427   -4.65719
       H     5.38407   12.45330    0.21573
       O     5.30526   11.48024    0.15214
      H1     5.80265   11.24487   -0.68806
       H     3.47624   18.17245    4.40443
       O     2.89980   18.44041    5.08751
      H1     3.25322   19.28262    5.37457
       H     1.39221    7.72430   -0.21672
       O     2.16266    7.31774    0.25790
      H1     2.39576    7.86854    1.01576
       H     6.99673    9.80001    0.36402
       O     7.75603    9.44357    0.84796
      H1     8.07352    8.70716    0.29118
       H     3.38645   16.73072   -2.14476
       O     3.68264   15.86514   -2.02954
      H1     4.08071   15.81186   -1.15575
       H    -0.78793   17.87005    4.28634
       O    -0.09950   17.35587    4.71201
      H1     0.64539   17.94218    4.60447
       H     4.57707   14.55034    2.96152
       O     4.86449   15.09427    2.17112
      H1     4.55564   16.04063    2.24286
       H     2.12623   10.30642   -4.91925
       O     2.03601   10.88317   -5.67939
      H1     1.09802   10.81686   -5.90832
       H    -0.81147   10.94396   -1.88161
       O    -1.17963   10.83642   -2.79048
      H1    -2.17246   10.64886   -2.70116
       H     3.49324    7.56932   -1.12293
       O     3.67674    7.44323   -2.05187
      H1     3.37758    6.54556   -2.28005
       H     8.57324   14.80759    0.01792
       O     8.12312   14.04839   -0.39606
      H1     8.62075   13.25938   -0.16962
       H     1.14437   14.30228    6.13476
       O     1.31567   14.59471    7.09463
      H1     1.95867   13.86211    7.27843
       H    -0.45831   14.89624    2.66761
       O     0.36559   15.39015    2.79931
      H1     0.18182   16.18462    3.38955
       H     3.34720   14.14170    1.28717
       O     2.86645   13.44515    0.82458
      H1     2.53410   13.98746    0.06264
       H     5.15409   11.62645   -3.73584
       O     5.22278   10.72597   -4.05243
      H1     4.32350   10.35067   -4.15113
       H     3.58090    8.70708    3.47976
       O     3.08109    8.72581    2.65271
      H1     2.66074    9.57532    2.74125
       H     0.88640   16.29970    1.12750
       O     1.02610   16.80781    0.29169
      H1     0.22153   16.61718   -0.21061
       H     0.08563    9.42152    2.31362
       O    -0.40063   10.10286    1.88474
      H1    -1.32484    9.85320    2.08030
       H     6.44267   14.38218   -3.62842
       O     7.23014   14.96444   -3.95266
      H1     6.87397   15.75651   -4.40512
       H     6.05969   16.07712    3.52122
       O     6.44065   16.27704    4.37441
      H1     5.87967   15.90750    5.10053
       H    -1.46212   11.07841    4.86246
       O    -1.33546   11.67513    4.15499
      H1    -0.97944   11.13887    3.40834
       H     0.16552   10.69364    0.37454
       O     0.29956   10.69431   -0.57136
      H1     1.20349   11.01060   -0.72007
       H    -0.10429    8.78431   -0.48500
       O    -0.08912    7.93191   -0.95421
      H1    -0.34238    8.16184   -1.86214
       H     4.38886   17.81910   -5.72000
       O     4.37766   17.61679   -4.76874
      H1     5.29272   17.78290   -4.52297
       H    -0.60260   18.74261    0.71777
       O    -1.46608   18.85880    0.29430
      H1    -2.00457   19.23620    1.04125
       H     1.87496   12.09296    3.55761
       O     2.33162   11.50989    2.95633
      H1     2.33207   11.94758    2.10277
       H     5.47949   12.68087    5.72258
       O     5.43914   12.73069    6.69010
      H1     6.20428   12.09320    6.88204
       H     6.14271   19.58891    2.08565
       O     6.53225   18.68276    2.08271
      H1     7.37116   18.75968    2.62344
       H     4.49554   14.47320   -2.92571
       O     4.73084   13.64354   -3.41918
      H1     4.60810   13.74046   -4.35936
       H     6.95340   18.62882   -0.30392
       O     6.86898   18.97976   -1.21333
      H1     7.24397   19.87543   -1.20364
       H     5.24279   18.10644    2.83944
       O     4.33653   17.67814    2.74296
      H1     4.01360   18.17904    1.99299
       H    -3.25475   16.32739   -1.36145
       O    -3.99910   16.92514   -1.35376
      H1    -4.78064   16.31661   -1.37212
       H     1.56798   13.95577   -4.40897
       O     1.53543   13.58095   -5.31625
      H1     1.38962   12.65031   -5.22833
       H     0.42390   12.42094    4.45030
       O     1.01542   13.21136    4.53148
      H1     0.63961   13.87301    3.91792
       H     7.55393   12.15449    2.43897
       O     6.68113   11.71272    2.59106
      H1     6.47470   11.60620    1.61613
       H     3.95644   11.43509   -1.09071
       O     3.08925   11.50777   -1.60173
      H1     3.13927   12.37136   -2.05018
       H    -3.16172   12.71430   -4.10870
       O    -2.49526   12.97626   -4.71562
      H1    -1.69789   12.53691   -4.40443
       H     5.34254   14.66031    0.67801
       O     5.46870   14.45916   -0.25790
      H1     6.39392   14.16002   -0.23155
       H     1.12324    8.79259   -3.52520
       O     0.21380    8.56118   -3.65489
      H1    -0.24976    9.43774   -3.52848
       H     5.29639   12.74945    3.43913
       O     4.58262   13.07719    4.10731
      H1     3.82939   12.46347    3.94574

