147
frame 7 | Written by MDAnalysis XYZWriter (release 2.4.3)
       H    -0.80622    8.80820    9.56634
       O    -1.58964    9.38477    9.35058
      H1    -2.24624    8.66808    9.32432
       H     4.72393   11.91938   14.86016
       O     5.48724   11.57801   15.37529
      H1     5.91539   10.84233   14.92572
       H     5.84987    3.43377   10.98497
       O     4.98086    3.01563   10.77627
      H1     4.45306    3.19875   11.55677
       H     2.14093    3.55865    9.20895
       O     2.66623    4.17729    9.75626
      H1     3.51298    3.64946    9.94077
       H    -0.27056    5.48345    4.50976
       O     0.15427    5.92347    5.29249
      H1     1.06096    5.60684    5.32535
       H     3.32295   13.78906   14.50433
       O     3.51098   12.91348   14.24637
      H1     3.93733   13.00074   13.38460
       H    -0.02991    2.92751   13.74610
       O    -0.60039    3.01076   14.49390
      H1    -0.03074    2.80978   15.26407
       H     2.95355    6.46554    6.73454
       O     3.35191    6.14131    5.93835
      H1     4.18697    5.70198    6.23941
       H    -1.63605    4.54132    9.50885
       O    -1.94223    4.31088    8.67589
      H1    -2.87402    4.04342    8.76236
       H     3.63172    6.32260   16.43891
       O     4.31529    6.82813   16.02010
      H1     3.94624    7.70723   15.92270
       H     1.57106    9.37035    5.36951
       O     2.15034    9.45779    6.13466
      H1     2.15570   10.39132    6.34755
       H     3.05563    3.87498   13.51640
       O     3.76178    3.18663   13.52098
      H1     3.84252    2.98980   14.43777
       H     0.31487    5.33687   10.11742
       O    -0.37235    5.15938   10.74683
      H1    -0.40763    5.96753   11.29270
       H    -5.40103    7.77374   10.63198
       O    -5.25395    7.31741    9.74835
      H1    -5.05083    8.06070    9.13527
       H     3.69272   12.06329    7.16954
       O     2.74346   12.06589    7.35748
      H1     2.83099   11.76250    8.31641
       H    -1.14414   11.41884    9.90930
       O    -0.54921   12.15548   10.04527
      H1    -0.74960   12.74304    9.26255
       H     4.67848    6.47220   14.16672
       O     5.05252    6.41185   13.28631
      H1     5.54766    7.22836   13.08424
       H     1.48212   13.96182    5.34708
       O     1.48243   14.18692    6.27567
      H1     1.92336   13.39143    6.64858
       H    -1.95638    9.36090   12.48755
       O    -2.87631    9.08143   12.65649
      H1    -2.80311    8.90517   13.60153
       H    -5.53403   10.03793   11.26922
       O    -5.53326    9.16034   11.68688
      H1    -4.64828    9.17975   12.11736
       H     6.89309    6.86479    8.61004
       O     6.49920    5.99269    8.41933
      H1     5.65395    6.10527    8.87677
       H    -1.95320    5.73680    7.80209
       O    -1.96641    6.61259    7.37053
      H1    -1.33533    6.50024    6.64371
       H     2.43841    9.48425   15.20081
       O     2.28646    8.76431   15.81614
      H1     2.60667    9.06740   16.66836
       H     4.71709   13.97821   10.80128
       O     4.54438   13.15353   11.32701
      H1     3.81862   12.64517   10.92210
       H    -1.88112   13.75286    7.01237
       O    -1.19493   13.70331    7.71151
      H1    -0.37120   13.97798    7.25259
       H    -0.45774   13.96313   15.19812
       O    -0.37877   14.12613   14.26309
      H1    -0.64162   13.29314   13.84384
       H    -0.02484   16.18107   10.76848
       O     0.66533   15.53498   10.54131
      H1     0.44631   14.59900   10.75501
       H     5.97118   12.16326   11.45150
       O     6.60006   11.45986   11.10981
      H1     7.43136   11.83064   11.20872
       H    -1.76516    4.43390   14.89272
       O    -2.28309    5.04388   15.39965
      H1    -1.68031    5.77366   15.64311
       H     1.11757    8.36720    9.15238
       O     0.84244    8.90751    9.93901
      H1     1.04846    8.50049   10.77607
       H     0.94403    6.13870   15.66499
       O     0.75700    6.68008   14.88409
      H1     1.45268    7.35198   15.00045
       H     0.30230   11.29058   13.22595
       O    -0.58437   11.35774   12.92288
      H1    -0.63570   11.92091   12.15175
       H     4.96989   10.83766    5.90332
       O     5.16720   11.78706    6.18335
      H1     5.92321   11.79198    6.74423
       H    -3.28252   10.51262   15.24792
       O    -3.08852    9.53367   15.31494
      H1    -2.20141    9.47583   15.69029
       H     1.49175    5.19995   12.23267
       O     2.08757    5.48062   12.86522
      H1     1.62692    5.91005   13.56558
       H    -1.14610    3.60603    7.47534
       O    -0.48471    3.43697    6.72151
      H1    -0.38812    4.25905    6.27222
       H     7.89617   11.68095    8.14584
       O     7.00767   11.35987    8.29482
      H1     6.76842   11.49668    9.20984
       H     2.77015    7.33655   12.36912
       O     2.97920    8.26606   12.12495
      H1     3.89563    8.31632   12.30309
       H    -1.74583   10.22460    7.40790
       O    -1.96008   10.46481    6.45751
      H1    -2.83867   10.88806    6.52904
       H     2.93494    7.44733    8.65944
       O     2.10416    7.49028    8.21030
      H1     2.29255    8.22916    7.59162
       H     3.57189    5.82305    9.84899
       O     4.15936    6.56038    9.70957
      H1     4.22903    7.04032   10.53835
       H     0.29926   10.56087   15.41308
       O    -0.33530   10.47517   16.12824
      H1    -0.55257   11.39482   16.47897
       H    -0.14532    7.04476   13.33815
       O    -0.21504    7.43945   12.40386
      H1    -1.16570    7.68181   12.39088
       H     6.31330    9.13190   12.89610
       O     5.94875    8.74982   12.11519
      H1     5.88559    9.47807   11.47952
       H     2.11425   10.39516   13.10034
       O     1.90585   10.73857   13.98329
      H1     2.56786   11.46859   14.06423
       H    -0.26774    3.30576   11.72351
       O     0.27234    2.54132   11.96405
      H1     0.53588    2.26975   11.05707
       H     1.21841   11.61214    9.98588
       O     2.18876   11.43122   10.00650
      H1     2.09754   10.43192    9.95543
       H    -3.03366    7.72675    6.48515
       O    -3.41697    8.34310    5.79717
      H1    -2.89608    9.19702    5.80740
       H     7.25101    8.86802   15.04877
       O     6.29472    9.07080   14.88430
      H1     6.02785    9.22418   15.81631

