147
frame 8 | Written by MDAnalysis XYZWriter (release 2.4.3)
       H    -7.05642    9.55148  -17.74268
       O    -7.83030   10.05711  -17.51035
      H1    -7.52777   10.98286  -17.62916
       H    -5.41028    5.23449  -16.47184
       O    -5.80116    6.05936  -16.11959
      H1    -5.41013    6.14568  -15.23380
       H    -9.72574    7.45212  -16.31321
       O    -9.27805    8.01682  -15.68598
      H1    -8.89497    8.73469  -16.20334
       H     0.10837    6.62853  -12.42091
       O    -0.89238    6.50467  -12.30606
      H1    -0.87665    5.69712  -11.83024
       H    -2.81103    7.37759  -10.25642
       O    -3.65060    6.95953  -10.41473
      H1    -3.94304    7.33424  -11.23834
       H    -8.93616    5.57959  -20.16559
       O    -9.70651    5.45972  -19.60004
      H1    -9.98839    6.27190  -19.14630
       H    -4.65169   13.07710  -15.19499
       O    -4.83967   12.25109  -15.56971
      H1    -4.67188   11.50673  -14.96192
       H    -5.92701    7.55496  -17.39399
       O    -6.00265    8.36121  -17.94746
      H1    -5.20931    8.80542  -17.74918
       H    -1.65187   12.59207  -13.98712
       O    -1.69813   13.39907  -13.45007
      H1    -0.72948   13.55187  -13.23684
       H    -5.85550    7.38341  -13.17847
       O    -5.43991    6.54939  -12.89978
      H1    -4.58472    6.54570  -13.29645
       H    -2.32582    7.47701  -17.61318
       O    -2.48665    7.94909  -16.73563
      H1    -2.87556    8.85258  -16.93205
       H     1.70733    9.55667  -10.17251
       O     1.51448    9.16765  -11.01929
      H1     0.61724    8.85672  -10.81822
       H     1.34679    2.86957  -15.47198
       O     1.05492    3.65657  -14.89352
      H1     0.93179    3.40141  -13.99422
       H    -1.45407   10.04609  -14.26535
       O    -1.46242   10.94076  -14.74238
      H1    -2.01862   10.78362  -15.49366
       H     0.28654    4.35293  -17.69031
       O     0.55932    4.41540  -18.59023
      H1     1.34954    5.01722  -18.63845
       H     2.80184    8.84390  -18.04255
       O     2.90078    8.27534  -18.83003
      H1     3.06508    8.96776  -19.52833
       H    -1.87125    1.33264  -19.71358
       O    -2.28683    0.66043  -19.16843
      H1    -2.73847    1.21738  -18.54981
       H     2.35799    7.27048  -11.07937
       O     2.63894    6.38660  -11.26057
      H1     2.76051    6.50728  -12.23904
       H    -5.40751   11.11602  -12.71623
       O    -5.34989   11.92804  -12.17827
      H1    -5.69036   12.54562  -12.83727
       H     1.13418    8.47948  -19.11355
       O     0.19720    8.46096  -19.38666
      H1    -0.30359    7.91618  -18.83883
       H    -1.41091   11.19358  -10.69315
       O    -1.23945   11.09130  -11.66300
      H1    -1.68366   11.80747  -12.05643
       H     2.49555    6.75497  -14.67293
       O     1.89130    6.34231  -14.02787
      H1     1.65855    5.53235  -14.42675
       H    -0.18273   12.99552  -18.94532
       O    -0.42657   13.93456  -18.98436
      H1    -0.90238   14.04824  -18.08114
       H     1.31342    2.61406  -12.00422
       O     0.58248    3.24855  -12.04837
      H1    -0.26844    2.74702  -12.16268
       H    -0.55419    7.79589  -16.05627
       O     0.27960    8.10071  -15.63859
      H1     0.63901    7.41209  -15.04435
       H     1.26842    9.60982  -16.41919
       O     2.03446    9.95721  -16.97488
      H1     2.76558    9.70585  -16.34119
       H     2.80396   12.93785  -16.50795
       O     3.33499   13.23258  -15.74630
      H1     4.04602   12.58133  -15.56750
       H    -7.87704   12.92994  -19.49532
       O    -7.12867   12.57334  -18.99825
      H1    -6.94645   13.31201  -18.32927
       H    -2.81198    3.92757  -11.05014
       O    -2.51018    4.54115  -10.38784
      H1    -3.09979    5.30594  -10.36044
       H    -5.04822    4.42794  -18.71992
       O    -5.39751    4.06806  -17.80937
      H1    -6.06479    3.40584  -18.10166
       H    -1.78538    1.44841  -13.57894
       O    -1.09015    1.35374  -14.30524
      H1    -0.48008    0.62246  -13.98167
       H    -1.72113    3.77930  -16.70612
       O    -1.09766    4.39706  -16.34207
      H1    -0.84805    4.02250  -15.51780
       H    -3.20993    6.70542  -15.21840
       O    -3.19071    5.94866  -14.62008
      H1    -2.36383    5.53680  -14.82049
       H    -1.31840   14.26063  -15.27119
       O    -1.20260   14.67542  -16.17954
      H1    -2.03024   15.16891  -16.19005
       H    -7.31279    4.45452  -16.00721
       O    -7.61358    3.64586  -15.43194
      H1    -8.49319    3.65401  -15.82563
       H    -1.88225    0.35865  -17.00514
       O    -2.54485    0.20524  -16.29209
      H1    -2.19047    0.63612  -15.48100
       H    -7.57011    9.12485  -13.29965
       O    -7.27548    8.45471  -13.97681
      H1    -8.00899    8.23383  -14.61121
       H    -2.82488    2.24794  -16.92306
       O    -2.98364    3.00294  -17.54337
      H1    -3.94446    3.14231  -17.48409
       H     3.53339    3.23873  -17.52332
       O     4.37967    3.57063  -17.84393
      H1     4.10362    4.22441  -18.47122
       H    -6.55218    1.13425  -18.93726
       O    -6.82985    1.97831  -19.28547
      H1    -7.76778    1.98569  -19.49186
       H    -2.60517    5.57158  -18.99178
       O    -1.80591    6.07008  -18.84658
      H1    -1.06245    5.47706  -18.67747
       H     1.61407   12.39060  -15.12539
       O     1.00303   12.15957  -14.40912
      H1     0.33771   11.52680  -14.70892
       H    -4.35128    9.16871  -13.81172
       O    -4.87850    9.70226  -14.41867
      H1    -5.74130    9.27933  -14.21101
       H    -2.10899    7.96544  -12.38828
       O    -2.72527    8.69614  -12.62786
      H1    -2.20996    9.53316  -12.42381
       H     1.38446   13.51632  -18.32010
       O     2.04706   12.83701  -17.99731
      H1     1.60960   12.01928  -18.20931
       H     2.38048   10.61038  -13.61829
       O     2.95882    9.86347  -13.28207
      H1     2.43581    9.32230  -12.71032
       H    -7.25575    4.23412  -13.80432
       O    -7.35970    4.67470  -12.98699
      H1    -6.65811    5.38564  -13.00877
       H     4.60992    8.42688  -15.59033
       O     3.63473    8.49549  -15.39220
      H1     3.56952    9.07966  -14.59511
       H    -3.21959   10.57578  -18.35690
       O    -3.43369   10.32258  -17.43857
      H1    -3.96188   11.08872  -17.06825

