147
frame 11 | Written by MDAnalysis XYZWriter (release 2.4.3)
       H    -5.46360  -16.48100   11.50023
       O    -4.97400  -16.51625   10.66126
      H1    -4.90903  -17.46138   10.39843
       H    -0.07087  -17.12007    2.70943
       O     0.75396  -17.57527    2.86611
      H1     1.47946  -16.92585    2.77144
       H     1.37721  -13.97143    7.52898
       O     1.96983  -13.60910    8.19266
      H1     2.41280  -12.82236    7.79852
       H     2.54754  -15.04427    2.07538
       O     2.82173  -15.73136    2.69867
      H1     3.70123  -15.94945    2.30970
       H    -5.50864  -16.50673    6.36820
       O    -5.91015  -17.20487    5.86951
      H1    -5.50285  -17.15480    4.97478
       H    -8.36338  -17.88158    3.92725
       O    -7.57952  -18.39224    3.69738
      H1    -7.71341  -19.24197    4.17926
       H     4.51737  -18.20726    3.45706
       O     4.63515  -19.01052    2.98215
      H1     4.03741  -18.98828    2.24744
       H    -8.06663  -16.30771    7.04053
       O    -9.00207  -16.67530    6.97990
      H1    -9.38856  -16.17175    7.69296
       H    -5.14898  -10.06622    3.85510
       O    -4.34362  -10.62892    3.69724
      H1    -3.64058  -10.31091    4.25430
       H    -1.01802  -13.08724    4.71693
       O    -0.57414  -12.45427    5.26185
      H1     0.26736  -12.16432    4.97254
       H    -1.87694  -15.51915    9.14814
       O    -1.86870  -14.73624    8.57511
      H1    -2.54729  -14.54416    7.87029
       H     2.24413  -19.45253    9.46587
       O     2.80435  -18.82552    9.92171
      H1     3.64024  -19.29496    9.97073
       H    -1.27644  -17.64226    8.94571
       O    -1.59902  -17.30605    9.78910
      H1    -1.24549  -17.73398   10.55103
       H    -6.15591  -17.50159    3.21092
       O    -5.34107  -16.95626    3.07395
      H1    -5.51436  -16.05365    3.21713
       H    -4.18918  -12.32226    2.41751
       O    -4.00489  -13.26132    2.33051
      H1    -4.35248  -13.46993    1.45815
       H    -2.47607  -17.44088    4.55209
       O    -2.80624  -18.08017    5.13853
      H1    -2.15803  -18.10668    5.85837
       H    -3.93324  -18.89951    8.82505
       O    -3.88111  -18.91609    9.78892
      H1    -3.07683  -18.40907    9.97369
       H    -0.68878  -19.77778   -3.51647
       O    -0.27092  -18.94896   -3.25691
      H1    -0.91405  -18.49487   -2.67093
       H    -0.56630  -10.21534    7.37317
       O    -1.23976  -10.93194    7.38919
      H1    -0.95334  -11.55261    6.65900
       H    -1.44625  -14.52578   -0.65736
       O    -2.28372  -14.13330   -0.86600
      H1    -2.24819  -13.59744   -1.67586
       H     3.03376  -18.89789   -0.32431
       O     3.78246  -18.90459    0.27517
      H1     4.43662  -19.61115    0.01844
       H     3.54208  -18.14230    7.26350
       O     2.95733  -18.75261    6.75112
      H1     2.30325  -18.14535    6.31852
       H    -3.67241  -12.95075    7.16649
       O    -3.69996  -13.85153    6.74415
      H1    -4.36254  -14.33819    7.21590
       H    -7.66157  -14.71438    3.67105
       O    -7.00203  -14.85538    4.32793
      H1    -7.10092  -15.69979    4.72104
       H    -9.14968  -19.44189    8.64336
       O    -8.42817  -18.78511    8.60301
      H1    -8.71469  -18.17944    7.88557
       H    -4.96625  -19.57907   -1.57885
       O    -5.60288  -19.59075   -0.89587
      H1    -5.53830  -18.75836   -0.35857
       H     0.24822  -15.11490    0.85353
       O    -0.15799  -15.60209    0.14274
      H1     0.43890  -15.55758   -0.65251
       H    -1.33153  -10.49523    1.12367
       O    -0.79124  -11.25324    1.29624
      H1    -1.35093  -11.99684    0.88983
       H    -2.46216  -16.52998    2.23865
       O    -1.82449  -16.55904    2.92438
      H1    -1.93754  -15.74747    3.46659
       H    -0.50112  -14.76455    7.37447
       O     0.16497  -14.68031    6.66958
      H1    -0.10340  -13.83137    6.24387
       H    -5.30746  -14.97544   -3.15733
       O    -6.05981  -14.98250   -2.55931
      H1    -5.70622  -14.91921   -1.66231
       H    -3.41931  -18.08744    0.60109
       O    -4.20803  -17.43924    0.60448
      H1    -4.52908  -17.47469    1.51786
       H    -1.40485  -19.19902    0.07865
       O    -2.24441  -19.51257    0.46403
      H1    -2.12243  -19.84325    1.33461
       H    -4.35039  -11.43430    0.01423
       O    -3.44878  -11.59438   -0.22120
      H1    -3.41241  -12.56199   -0.32075
       H    -0.31908  -17.89769    6.86297
       O    -1.08503  -18.13066    7.37325
      H1    -0.99050  -19.04741    7.59897
       H     0.87352  -12.35308    1.57477
       O     1.43750  -13.20040    1.70543
      H1     2.06510  -13.15322    0.96150
       H    -5.30558  -15.45919    0.47979
       O    -5.45394  -14.59441    0.14916
      H1    -6.17165  -14.21714    0.73750
       H    -3.04413  -17.52593   -2.25905
       O    -2.20146  -17.21579   -1.98554
      H1    -2.34945  -16.39545   -1.55026
       H     3.00181  -16.73211    8.82550
       O     3.51359  -15.92081    8.85003
      H1     2.88515  -15.28316    8.50393
       H    -6.00073  -14.42696    8.40206
       O    -5.73431  -15.28900    8.10811
      H1    -5.47772  -15.62890    8.96695
       H    -7.63525  -12.94236    1.57713
       O    -8.03173  -13.76992    1.85834
      H1    -8.25897  -14.25650    1.04960
       H     3.43927  -13.37058    4.69286
       O     2.59919  -12.86632    4.43485
      H1     2.30164  -13.37443    3.66568
       H     0.78938  -18.53777    1.18336
       O     0.66117  -19.18141    0.42723
      H1     1.10257  -19.97404    0.77375
       H     0.39878  -16.31181    5.96943
       O     0.68992  -17.23649    5.71761
      H1     0.60098  -17.42446    4.71417
       H    -2.66450  -13.94775    3.59797
       O    -2.22956  -14.35018    4.41419
      H1    -2.90864  -14.16043    5.12784
       H    -6.67050  -12.77160    5.33332
       O    -6.96444  -12.32210    6.11446
      H1    -7.89050  -12.61040    6.19296
       H    -5.45483  -12.31825    9.00363
       O    -6.35834  -12.62485    8.83642
      H1    -6.50726  -12.39414    7.89688
       H    -4.61968  -18.74245    6.58758
       O    -4.56173  -19.45258    7.24953
      H1    -3.85341  -20.04532    6.90325
       H    -2.82154  -11.35967    8.37011
       O    -3.73231  -11.62013    8.42433
      H1    -4.20496  -10.92576    8.01604

