147
frame 3 | Written by MDAnalysis XYZWriter (release 2.4.3)
       H     8.63830  -12.13509   10.89053
       O     9.25843  -12.84724   10.71073
      H1     8.65808  -13.51292   10.33229
       H    10.97120  -17.28194   12.11689
       O    11.48742  -17.48731   11.32820
      H1    10.87794  -17.24363   10.65584
       H     6.27561  -10.18726    8.66036
       O     5.95835  -10.44106    9.54642
      H1     6.73137  -10.26060   10.14546
       H     7.09876  -17.57721   13.36182
       O     7.64888  -16.81883   13.14776
      H1     7.06277  -16.10423   13.19191
       H     6.52326  -18.54622   17.30873
       O     7.47795  -18.47124   17.12877
      H1     7.64982  -17.65862   16.69747
       H     9.40160  -13.81606   14.55397
       O     9.93416  -14.20119   15.26807
      H1     9.33265  -14.88038   15.61082
       H     7.61964   -9.86304   12.54759
       O     7.88492  -10.06106   11.61121
      H1     8.69378   -9.52645   11.54900
       H     6.93736  -19.82167   13.50628
       O     6.32348  -19.11683   13.32278
      H1     5.53978  -19.41566   13.81725
       H     8.58059  -14.52789    5.86247
       O     9.49273  -14.48068    6.23252
      H1    10.03535  -14.20518    5.50582
       H    12.95219  -13.36068   15.32271
       O    12.40646  -13.59216   16.08572
      H1    11.56715  -13.81356   15.64605
       H     0.02875  -12.49858   11.49598
       O    -0.39268  -12.90224   10.69388
      H1    -0.27976  -12.19147   10.04018
       H     5.66997  -13.22374   11.94497
       O     6.17608  -14.00717   11.93899
      H1     6.57671  -14.00287   11.03071
       H    11.04568  -15.51442   14.04147
       O    11.20840  -16.44378   13.78537
      H1    11.18017  -16.78648   14.67955
       H     3.82392  -19.64291    8.92344
       O     3.73288  -18.89513    9.57462
      H1     3.96643  -18.12405    9.05031
       H     4.48529  -11.24873    8.83885
       O     3.73068  -11.87109    8.50421
      H1     4.17495  -12.72171    8.18580
       H     6.90947  -17.61923    9.78140
       O     7.55207  -17.10950   10.23820
      H1     7.30091  -17.18111   11.14753
       H     3.84376  -16.50596    7.23233
       O     3.87701  -16.44266    8.24556
      H1     3.00262  -16.18464    8.61655
       H     7.03256  -11.87858   19.23566
       O     6.62947  -11.79341   18.39510
      H1     7.43112  -11.52578   17.87839
       H    10.16545  -11.74924   11.98763
       O    10.81956  -11.24339   12.54090
      H1    11.63070  -11.48130   12.04129
       H     4.76506   -9.74818   14.69044
       O     5.02829   -9.48980   13.80193
      H1     4.67748  -10.14945   13.15240
       H     7.71921  -16.49775   15.35583
       O     8.15415  -16.08687   16.12886
      H1     7.41554  -15.57680   16.45317
       H    10.01172  -17.82466    8.25721
       O     9.87401  -18.35605    9.06230
      H1     8.98461  -18.14438    9.38249
       H    10.80486   -9.48202   11.68035
       O    10.23401   -8.71789   11.61562
      H1    10.74809   -7.93454   11.31497
       H     1.36387  -10.59297    9.12776
       O     0.53900  -10.91232    8.83693
      H1     0.67457  -11.29614    7.91913
       H     0.65060  -11.58412   13.81522
       O     0.93101  -12.07645   13.05902
      H1     1.22973  -12.88513   13.52864
       H     3.31677   -9.99813   16.30592
       O     4.15732  -10.44150   16.10000
      H1     4.47887  -10.75535   16.97900
       H     8.03957  -12.01751   13.74769
       O     8.18351  -12.89643   13.51992
      H1     7.53631  -13.19530   12.90289
       H     2.24790  -17.81878   11.87911
       O     2.75590  -17.11789   11.47837
      H1     3.40792  -17.64667   10.94041
       H     2.97919  -10.49693   11.46925
       O     2.31229   -9.86455   11.08050
      H1     2.76159   -9.01008   10.94500
       H     4.57065   -6.54577   12.90218
       O     3.94668   -7.13885   13.35276
      H1     4.51798   -7.92105   13.33505
       H    12.53644  -15.71794   12.56194
       O    13.48474  -15.62486   12.60374
      H1    13.61556  -14.63310   12.75525
       H     5.06073  -11.61790   10.88021
       O     4.59577  -11.82927   11.70131
      H1     3.80485  -12.18773   11.33027
       H     2.45538  -15.06757   13.72033
       O     1.57419  -14.75087   13.94867
      H1     0.87071  -15.20394   13.37610
       H     3.13081  -10.93712    7.20989
       O     2.77533  -10.28661    6.60567
      H1     3.25081   -9.47084    6.73865
       H     6.48525  -14.69150    4.95228
       O     6.54644  -15.02635    5.82517
      H1     6.76557  -15.96320    5.88810
       H     1.91721  -16.10625   16.51854
       O     1.73663  -15.13077   16.55301
      H1     1.51664  -14.89224   15.59188
       H     1.87368  -14.76917    9.61765
       O     1.60567  -15.60802    9.27026
      H1     1.80472  -16.15589   10.05326
       H     4.63099  -12.86154   15.09833
       O     3.92500  -13.44562   15.39090
      H1     3.39012  -12.91384   16.01010
       H     6.41691  -13.48367   17.83567
       O     6.28744  -14.38463   17.46729
      H1     5.56902  -14.24884   16.80189
       H     7.79692  -10.36230   15.39093
       O     7.55099  -10.22624   14.47678
      H1     6.59551  -10.08154   14.43669
       H     6.56280  -14.62132    9.01906
       O     7.40634  -14.65548    9.46311
      H1     7.51214  -15.55343    9.80688
       H     5.14137  -17.19144   15.93770
       O     5.40758  -16.46767   15.34909
      H1     4.69827  -16.15613   14.76742
       H     1.63128  -13.11749   10.81017
       O     2.56671  -13.21582   10.54557
      H1     2.60410  -12.73776    9.67710
       H     4.61251  -14.92618   12.54969
       O     4.09729  -15.58742   13.05946
      H1     3.45859  -15.94447   12.45546
       H     2.02556  -13.45902   17.10283
       O     2.07797  -12.44506   17.21389
      H1     2.20656  -12.32749   18.20015
       H     5.65834  -14.69731    7.21547
       O     5.08180  -14.11352    7.74814
      H1     4.54393  -14.72743    8.26596
       H    10.22069  -12.72182    9.09721
       O    10.58408  -12.60107    8.21150
      H1     9.95351  -13.03304    7.66554
       H    10.02411   -9.11231    7.88908
       O     9.53989   -9.94519    8.02013
      H1    10.16969  -10.70051    8.10104
       H    10.08873  -19.51361   12.48891
       O     9.12981  -19.60782   12.44162
      H1     8.79410  -18.83711   12.96486

