150
frame 5 | Written by MDAnalysis XYZWriter (release 2.4.3)
       H     6.52344   -5.80232  -13.73790
       O     7.32265   -6.31200  -13.70117
      H1     7.80306   -5.92340  -12.95814
       H     7.33124   -4.90232  -15.52974
       O     7.63378   -4.00741  -15.65228
      H1     7.13682   -3.59143  -14.96550
       H    -4.02124   -2.25652  -17.38991
       O    -3.64906   -2.80493  -16.62913
      H1    -4.26653   -2.55155  -15.99391
       H     3.83931   -4.79835  -11.12771
       O     3.48446   -4.91670  -11.99875
      H1     2.67868   -5.40344  -11.90271
       H     6.08610    0.22537  -19.50367
       O     5.49823    0.44215  -18.73069
      H1     4.68025    0.79408  -19.11903
       H     0.73605   -4.67412  -11.31785
       O     0.42860   -3.96923  -10.79940
      H1     0.20873   -3.37207  -11.44341
       H     2.14800   -4.35472  -19.28466
       O     2.33309   -5.05941  -18.67126
      H1     3.10717   -5.44613  -19.06287
       H     3.85954    5.71346  -19.01366
       O     3.11852    5.45084  -18.48017
      H1     2.56851    6.20232  -18.57261
       H     9.55484   -1.35303  -18.02729
       O     9.37402   -0.71491  -17.34543
      H1     9.58688   -1.16275  -16.51937
       H     5.66212   -5.76016  -19.11183
       O     6.17691   -5.83600  -18.26881
      H1     7.08966   -5.48723  -18.31587
       H     1.64079    2.76033  -14.72936
       O     0.88694    3.32313  -14.71705
      H1     0.18544    2.92198  -14.15807
       H    -4.26818   -0.71048  -14.42464
       O    -4.95756   -1.41295  -14.56235
      H1    -5.36325   -1.63073  -13.66124
       H     1.25410    3.22164  -18.73856
       O     1.62838    3.30362  -19.65849
      H1     2.31192    3.95049  -19.59438
       H    -4.02881    2.15427  -19.54739
       O    -3.31539    1.74816  -19.03518
      H1    -3.28669    2.33652  -18.23902
       H     1.12507    0.62352  -16.47862
       O     1.41312   -0.08395  -17.04913
      H1     2.27504    0.28729  -17.31713
       H    -3.26141    6.14136  -19.67631
       O    -3.29580    5.51656  -18.93285
      H1    -3.21054    4.67350  -19.33189
       H     5.24569   -2.65611  -13.94871
       O     6.09916   -2.30915  -14.11489
      H1     6.00864   -1.51723  -14.60759
       H     2.18852   -1.73121  -11.76597
       O     2.69594   -2.32070  -12.32193
      H1     2.49562   -3.24083  -12.15485
       H    -3.78108   -6.01343  -15.69472
       O    -4.46184   -5.36276  -15.42079
      H1    -4.09617   -4.60198  -15.91834
       H     0.03797    1.76499  -13.12004
       O    -0.65615    2.39674  -12.80271
      H1    -1.48576    1.79537  -12.87257
       H     6.89066    2.06910  -18.87155
       O     7.49394    2.75432  -19.18996
      H1     7.63646    3.26111  -18.37192
       H    -4.67316   -1.70602  -19.62354
       O    -4.36841   -1.09357  -18.95431
      H1    -3.60865   -0.68536  -19.37418
       H    -3.10815   -9.68143  -17.24371
       O    -2.30071   -9.57185  -16.73594
      H1    -2.51766   -9.50563  -15.81128
       H    -1.58374   -7.27326  -15.44065
       O    -1.26742   -7.45886  -14.54941
      H1    -0.72008   -8.26206  -14.64046
       H     7.21224    0.22688  -15.20795
       O     6.48710   -0.08335  -15.81346
      H1     7.06427   -0.34838  -16.56326
       H     5.85017   -7.93110  -15.74952
       O     6.51953   -7.83927  -16.45723
      H1     6.35245   -7.02397  -17.02114
       H     5.25832   -8.92222  -17.99619
       O     4.69069   -9.12768  -18.75325
      H1     5.23061   -9.47451  -19.48573
       H    -5.99252    0.79228  -17.29651
       O    -6.82798    1.24679  -17.62635
      H1    -6.91334    2.03583  -17.05974
       H     4.49225    1.87928  -13.73910
       O     3.87838    1.46627  -13.16239
      H1     3.77404    2.04786  -12.38938
       H    -1.12528    3.62651  -16.88585
       O    -0.18999    3.66508  -17.07459
      H1     0.16291    3.51613  -16.15591
       H     1.92954    0.61485  -13.54569
       O     1.08669    0.54719  -13.97299
      H1     0.66263   -0.17915  -13.51869
       H    -1.47818   -4.45959  -18.88475
       O    -2.18078   -3.80060  -19.04785
      H1    -2.34244   -3.27968  -18.25264
       H    -2.76470    0.16844  -16.52411
       O    -3.21070    0.58448  -15.72285
      H1    -2.48022    0.92011  -15.22630
       H    -3.15529    2.55391  -16.04970
       O    -3.03157    3.25851  -16.70900
      H1    -3.60337    3.97061  -16.34018
       H    -0.62169   -0.86675  -17.28913
       O    -1.47246   -1.05434  -17.64698
      H1    -1.92094   -1.70372  -17.01822
       H     4.94286    4.76820  -16.06374
       O     4.00323    4.78907  -15.90691
      H1     3.74627    5.05099  -16.78632
       H     4.21630   -7.45808  -14.33677
       O     4.67912   -8.21794  -14.56611
      H1     5.05500   -8.57086  -13.71278
       H     4.32798   -5.15530  -13.34509
       O     4.71664   -5.21550  -14.24870
      H1     3.95408   -5.01341  -14.84287
       H     0.95588   -1.87354  -18.75014
       O     1.37775   -2.42626  -19.43102
      H1     2.29474   -2.23482  -19.37923
       H     1.19294   -2.37433  -12.91418
       O     0.20228   -2.23519  -12.95826
      H1    -0.00644   -2.99182  -13.59993
       H    -5.58378   -5.81016  -16.77386
       O    -5.97556   -6.56614  -17.26712
      H1    -5.19383   -7.08838  -17.58016
       H     4.30482    1.43231  -16.22420
       O     3.47707    1.97275  -16.26258
      H1     3.75820    2.79950  -15.90246
       H    -0.23823   -6.48780  -19.31757
       O    -0.32965   -5.71041  -18.75122
      H1     0.53519   -5.27754  -18.73628
       H     2.49440   -3.59537  -15.81340
       O     2.39868   -4.56426  -15.82331
      H1     2.63773   -4.77744  -16.75728
       H     2.02297   -0.92010  -15.61303
       O     2.52096   -1.67277  -15.21167
      H1     2.40355   -1.68468  -14.25934
       H    -2.24336   -7.88739  -17.20293
       O    -2.10784   -6.96359  -16.99273
      H1    -1.36763   -6.68612  -17.53262
       H    -0.33759   -5.63301  -14.13496
       O     0.39618   -5.03608  -13.95453
      H1     0.90765   -5.04987  -14.76421
       H     0.10241  -10.90480  -14.77088
       O     0.14993   -9.94736  -14.75873
      H1     0.88228   -9.74380  -15.32442
       H     8.83265   -4.07766  -17.47440
       O     8.64962   -4.44792  -18.32689
      H1     8.91723   -3.76309  -18.95543
       H     4.57942   -2.78336  -17.75965
       O     4.28372   -2.23917  -18.49069
      H1     4.82403   -1.43195  -18.47503

