150
frame 1 | Written by MDAnalysis XYZWriter (release 2.4.3)
       H    17.90686   -9.35618  -10.01333
       O    17.33807   -9.45286   -9.24603
      H1    17.76670   -8.79609   -8.65653
       H    17.61649  -11.89281  -16.79059
       O    18.58355  -12.04229  -16.59976
      H1    18.64289  -11.26560  -16.03101
       H    10.41884  -15.62806  -17.48355
       O    10.76867  -14.95923  -16.88512
      H1    10.75951  -14.11269  -17.39662
       H    12.20618  -17.23297  -14.74049
       O    12.55477  -16.48730  -15.22928
      H1    11.92583  -15.72497  -14.96494
       H     8.50593  -18.77087  -16.26493
       O     9.42702  -18.76608  -16.58665
      H1     9.80523  -18.10935  -15.96349
       H    15.63324  -14.77737  -15.55293
       O    15.57882  -13.91989  -15.17998
      H1    15.34201  -14.09889  -14.24865
       H    10.92175  -12.24520  -17.53854
       O    10.65414  -12.78102  -18.31070
      H1     9.70826  -12.65471  -18.34876
       H    14.43331  -16.89301  -15.26848
       O    15.35483  -16.75246  -15.42716
      H1    15.84206  -17.55454  -15.10315
       H    18.77010  -13.18744  -15.27579
       O    18.95412  -13.80547  -14.53487
      H1    19.78881  -13.48443  -14.14093
       H     9.17880  -10.16459  -14.00498
       O     9.53386  -10.40290  -14.87229
      H1     9.00237   -9.96487  -15.47022
       H    11.71161  -12.80069   -8.95290
       O    11.12010  -13.28549   -8.34985
      H1    11.12694  -14.18565   -8.71547
       H    13.63321  -12.22181  -11.05001
       O    13.16021  -12.13326  -10.17451
      H1    13.53119  -11.23812   -9.87199
       H    13.24782  -19.32885   -8.13065
       O    13.65778  -19.15445   -8.98958
      H1    13.86589  -18.16924   -9.15400
       H    14.05746  -12.74635  -13.43944
       O    14.33597  -13.08097  -12.55754
      H1    15.30382  -12.91029  -12.46542
       H    12.48060   -8.21192  -16.92083
       O    13.11083   -8.90811  -17.22461
      H1    13.34598   -8.58890  -18.12136
       H    18.73125  -14.14362  -19.42517
       O    19.67806  -14.25334  -19.32000
      H1    20.05807  -13.71246  -20.00942
       H    16.75978  -13.16195  -18.66574
       O    16.80167  -13.89882  -19.32160
      H1    16.38152  -14.57633  -18.79216
       H    15.14313  -11.24158  -17.77442
       O    16.12865  -11.37256  -17.68776
      H1    16.61548  -10.99848  -18.41854
       H    12.15157  -19.62790  -10.44102
       O    11.29556  -19.68400  -10.89426
      H1    11.52030  -19.36317  -11.77838
       H    18.72009   -9.25652  -14.57733
       O    19.04618   -9.54571  -15.46288
      H1    18.84389   -8.78800  -16.06074
       H    12.20940  -15.36268  -18.25201
       O    12.76881  -15.66342  -18.99289
      H1    13.65852  -15.86753  -18.61885
       H    17.60879  -20.03224  -14.95715
       O    17.44188  -19.10483  -14.70149
      H1    18.34288  -18.83689  -14.40585
       H    12.20948  -16.31810   -9.61875
       O    11.40193  -16.05425   -9.14205
      H1    10.71775  -16.46642   -9.67176
       H    17.78295   -9.43661  -19.31142
       O    17.81528  -10.38675  -19.59248
      H1    18.70085  -10.70230  -19.38459
       H    19.16371  -12.58981   -9.92994
       O    19.41491  -12.79192  -10.89263
      H1    19.82864  -13.71469  -10.77775
       H    11.71674  -17.15546  -19.24464
       O    11.48329  -17.95438  -19.71974
      H1    12.35509  -18.48253  -19.75842
       H    14.65750  -14.09670   -8.07869
       O    14.45778  -14.29781   -8.98859
      H1    13.95448  -13.57612   -9.26637
       H    13.06939  -19.22363  -13.82783
       O    12.20683  -18.85417  -13.68743
      H1    11.67297  -19.44975  -14.20000
       H    18.82206  -17.46670  -17.34495
       O    18.26076  -18.20059  -17.66976
      H1    17.74350  -18.41750  -16.90100
       H    11.97054  -11.22495  -11.09539
       O    11.52934  -10.78366  -11.87435
      H1    12.19599  -10.12219  -12.12216
       H    15.50251   -8.34989  -15.19156
       O    15.35608   -9.00048  -14.43508
      H1    15.02216   -9.80617  -14.87582
       H    13.27587  -11.15268  -15.09115
       O    14.22980  -11.31072  -14.92736
      H1    14.40679  -12.23754  -15.07326
       H    18.35276  -16.05667   -8.49734
       O    18.13670  -15.80623   -9.41518
      H1    18.96333  -15.43034   -9.71015
       H    16.37748   -6.74718  -10.17630
       O    15.52928   -7.18552   -9.96149
      H1    15.80223   -8.11941   -9.86934
       H    13.48179   -7.83433  -12.18898
       O    13.25739   -8.66528  -12.66542
      H1    13.89999   -8.58879  -13.38912
       H     9.46384  -14.66949  -13.92575
       O     9.32283  -15.28406  -14.61472
      H1     9.84500  -15.01779  -15.34799
       H    19.35935  -14.99179  -15.83032
       O    19.81051  -15.49551  -16.54276
      H1    19.89830  -14.93482  -17.28939
       H    19.32034  -10.01305  -12.97252
       O    18.81751   -9.25296  -12.75207
      H1    17.89816   -9.62024  -12.63802
       H    17.93649  -11.21441   -8.96275
       O    18.50511  -11.95132   -8.56600
      H1    17.86483  -12.65391   -8.27294
       H    14.60313   -7.98387  -16.90153
       O    15.38538   -7.53869  -16.73246
      H1    15.16598   -6.59965  -16.88197
       H    15.38445   -9.83158   -9.28132
       O    14.60640   -9.82672   -9.86347
      H1    14.93342  -10.02880  -10.75514
       H    12.61844  -14.83922  -11.83212
       O    11.93112  -15.34312  -12.25487
      H1    12.31060  -16.21680  -12.29687
       H    10.32943  -14.23361  -12.22029
       O     9.73044  -13.47945  -12.46840
      H1    10.31988  -12.77112  -12.81826
       H    17.45434  -13.14279  -11.80489
       O    17.00971  -12.87892  -12.60683
      H1    17.55520  -13.26778  -13.30287
       H    10.90785  -10.69229  -15.71658
       O    11.72596  -11.12652  -16.09783
      H1    12.17166  -10.33615  -16.49235
       H    16.72433  -17.68006  -12.06741
       O    15.82335  -18.01424  -11.93751
      H1    16.03246  -18.91752  -11.57073
       H    15.08400  -16.17299  -17.04641
       O    15.20633  -15.88082  -18.00667
      H1    15.56031  -16.69684  -18.40767
       H    16.48972  -11.18690  -12.10605
       O    16.25613  -10.23895  -12.04708
      H1    15.75704  -10.07161  -12.83504
       H    18.19712  -17.60917   -9.82326
       O    18.09984  -18.56230   -9.84919
      H1    17.59931  -18.85782   -9.12762
       H    14.40256  -15.84340   -9.61167
       O    14.28979  -16.68607  -10.10269
      H1    15.09301  -17.04447  -10.56304

