150
frame 0 | Written by MDAnalysis XYZWriter (release 2.4.3)
       H     7.40353   10.38724   -9.80444
       O     7.07043   11.17761  -10.19990
      H1     6.97289   11.73748   -9.39929
       H     9.75457   13.19458   -8.82031
       O     9.95232   13.57419   -7.96187
      H1    10.67843   14.23743   -8.17978
       H     3.83037   10.66813  -12.05102
       O     4.05058   11.01969  -12.92690
      H1     4.99683   11.09888  -12.94223
       H     6.86218    9.13277  -12.76869
       O     6.75129    9.96065  -13.29260
      H1     7.64749    9.93954  -13.59991
       H     8.43657   15.73305   -4.46857
       O     9.19132   15.73227   -3.87630
      H1     8.95116   16.28139   -3.13651
       H     6.37811    8.72617   -4.05030
       O     6.00343    8.08399   -4.65999
      H1     5.08149    8.28204   -4.52242
       H     6.67567   14.56445   -1.98511
       O     6.98582   13.67231   -1.84748
      H1     6.69958   13.33206   -2.74841
       H     2.24553    8.67522   -8.85180
       O     1.41468    8.53911   -9.39981
      H1     1.81797    8.08428  -10.15118
       H    10.49721    7.80423   -3.97054
       O     9.74052    8.16792   -3.51683
      H1     9.18409    7.33821   -3.59095
       H     4.31460   11.72396   -1.14290
       O     3.48641   11.83967   -1.63650
      H1     2.92726   11.12456   -1.38657
       H     5.90882    7.61288   -6.60474
       O     5.84025    7.48411   -7.55884
      H1     5.96073    6.49181   -7.59936
       H    11.14224   15.64881  -10.96419
       O    11.31728   15.70773   -9.98573
      H1    12.18527   16.14116   -9.95844
       H     1.46855   15.66052   -6.91072
       O     0.88273   16.00725   -7.56420
      H1     0.39408   16.65283   -7.05694
       H     1.10823   10.92638  -11.60261
       O     1.32723   11.19681  -10.66827
      H1     1.45342   10.36008  -10.16572
       H    11.68784    7.70753   -6.85603
       O    11.31480    8.22530   -7.57801
      H1    10.69211    7.52622   -7.86064
       H    11.13071   14.15090   -3.75060
       O    11.58685   13.27715   -3.95044
      H1    10.90795   12.75771   -4.35418
       H     3.11314   16.06815   -5.05740
       O     2.52592   15.46415   -5.55679
      H1     1.93183   15.19050   -4.82106
       H     5.93263    7.11800   -2.80873
       O     5.91813    6.20999   -2.50509
      H1     6.60753    6.14483   -1.79523
       H     4.66604   10.47213   -6.20769
       O     5.50966   10.85221   -6.09199
      H1     5.96518   10.20043   -5.58517
       H     8.69338    7.50901  -11.28520
       O     9.35520    6.86287  -11.02436
      H1    10.20529    7.19801  -11.46327
       H     5.01351   17.58339   -7.93771
       O     4.85060   18.52575   -7.87575
      H1     3.95129   18.45143   -8.20323
       H     3.86743   11.12283   -9.95290
       O     4.21727   10.30218  -10.28669
      H1     5.16449   10.42315  -10.20923
       H     4.66686   12.14660   -3.19199
       O     5.40705   12.38976   -3.68872
      H1     5.17269   12.02873   -4.56683
       H     8.47073   13.95469   -1.57036
       O     9.36248   14.07070   -1.14511
      H1     9.74272   14.70339   -1.85424
       H     9.39552   11.41469   -6.06961
       O     9.42230   12.11267   -5.34425
      H1     8.72398   12.68965   -5.67458
       H     4.12590    8.62298   -7.65711
       O     3.52920    9.30060   -7.89140
      H1     4.01468    9.74533   -8.62190
       H     8.92594    5.50054   -8.30900
       O     9.65291    6.01079   -8.56467
      H1     9.25144    6.26653   -9.46232
       H     5.78792    8.00631  -11.72076
       O     6.68145    7.99283  -11.34424
      H1     6.48818    8.50708  -10.53367
       H     0.31120   12.78988  -10.41986
       O    -0.10696   13.64720  -10.41208
      H1    -1.02471   13.36123  -10.16796
       H     8.43583   10.92771   -4.45519
       O     7.92003   10.13759   -4.42597
      H1     8.58470    9.45332   -4.42497
       H     6.42039    9.91176   -1.75323
       O     6.36580    8.99079   -2.05171
      H1     7.09913    8.58364   -1.52006
       H    10.61326   16.56176   -5.01355
       O    11.26263   17.12193   -5.33904
      H1    11.70460   17.22536   -4.47117
       H     6.08533   15.85660   -9.28612
       O     6.29496   15.73232   -8.34338
      H1     6.69614   14.86182   -8.15120
       H     9.30634   12.96189  -11.24279
       O     9.75685   12.50062  -10.53345
      H1     9.06342   11.89198  -10.22482
       H     8.26727   13.15345  -13.45985
       O     8.12319   13.07167  -12.50002
      H1     7.18136   13.11344  -12.29522
       H     7.06872    8.62632   -8.04059
       O     7.69263    9.10930   -8.61781
      H1     8.43861    9.50845   -8.15868
       H     7.30014   16.86959  -10.86323
       O     7.10284   17.70074  -10.41247
      H1     7.14925   18.22174  -11.24907
       H     6.81470   13.53600   -6.47889
       O     7.13515   13.78913   -5.66896
      H1     6.26486   13.75197   -5.20748
       H     4.71992   14.68702  -10.77866
       O     5.57986   14.97594  -11.09705
      H1     5.33650   15.82893  -11.62121
       H    12.12420   11.59308  -12.50277
       O    11.63838   10.79930  -12.22060
      H1    11.20920   11.20043  -11.43539
       H     3.37638   12.96579   -7.81600
       O     3.89614   13.19419   -8.56221
      H1     3.79721   14.12792   -8.74498
       H     6.40745   11.76548   -7.48451
       O     6.36056   12.59463   -7.97099
      H1     5.45125   12.81261   -7.95800
       H    10.60241   10.25591   -7.54369
       O     9.73089   10.69020   -7.69380
      H1     9.98120   11.58404   -7.77192
       H    13.18867   11.35329   -6.79015
       O    12.37807   11.00478   -6.42444
      H1    12.30671   10.06224   -6.70101
       H     0.70438   10.78802   -4.48284
       O     1.10602   11.07046   -3.61666
      H1     1.75418   10.35468   -3.54545
       H     2.90589   13.51210   -5.57689
       O     3.11461   12.55125   -5.72858
      H1     2.49609   12.16422   -4.99711
       H    10.17104   17.03738   -9.32572
       O     9.71844   17.83587   -8.98052
      H1     8.75511   17.73149   -9.21562
       H     2.81048    8.56967   -5.26468
       O     3.08407    8.86515   -4.39223
      H1     2.51492    8.29115   -3.87942
       H     3.61946   13.24504  -12.91379
       O     4.11838   14.02728  -13.10228
      H1     4.77512   14.07176  -12.41875
       H    -0.23550   11.14875   -6.26050
       O     0.01004   10.29826   -5.86375
      H1    -0.69650   10.09128   -5.26814

