150
frame 0 | Written by MDAnalysis XYZWriter (release 2.4.3)
       H   -18.82740  -16.41088    7.08837
       O   -19.80545  -16.18894    7.04443
      H1   -19.76565  -15.35379    7.51022
       H   -17.28578  -17.77955    6.63601
       O   -17.89320  -17.80123    5.95178
      H1   -18.53550  -18.54938    6.02061
       H   -16.19943  -10.46046   12.56190
       O   -15.55001  -10.32209   13.25686
      H1   -15.24212   -9.43037   13.03277
       H   -12.18359  -16.97762   17.21455
       O   -12.72221  -17.42230   17.93780
      H1   -13.35459  -16.72513   18.20162
       H   -14.08913  -13.03369   16.47568
       O   -15.04150  -12.73696   16.29476
      H1   -15.19216  -13.03852   15.37067
       H   -15.08451  -14.98035   18.73653
       O   -15.17099  -15.88061   18.33459
      H1   -15.77270  -15.69361   17.65118
       H   -17.80114  -11.83864   15.99146
       O   -17.80558  -11.46781   15.11589
      H1   -16.84243  -11.39468   14.97688
       H   -13.94034  -19.39308   19.56653
       O   -13.03564  -19.81795   19.55029
      H1   -12.70084  -19.13729   18.98142
       H   -18.15689  -13.93080    6.23999
       O   -18.85961  -13.30745    5.98143
      H1   -18.57123  -12.53246    6.48254
       H   -11.61211  -13.11194   12.54329
       O   -11.32423  -13.34477   11.64429
      H1   -11.93131  -14.02341   11.41505
       H   -19.48909   -6.99468   12.02370
       O   -18.56183   -7.21818   12.19901
      H1   -18.64439   -7.97353   12.84250
       H   -17.54784  -11.03811    9.84027
       O   -17.34476  -11.45250    9.00643
      H1   -17.56116  -10.79436    8.36308
       H   -16.31527   -7.37801   10.65673
       O   -15.63091   -7.85899   10.06902
      H1   -14.96632   -7.19365   10.06813
       H   -16.84319  -14.62092    9.53685
       O   -15.95333  -14.77864    9.82559
      H1   -15.81439  -15.72676    9.82484
       H   -18.35876  -16.24777   16.24120
       O   -18.90853  -15.49196   16.33441
      H1   -19.69402  -15.69168   15.83867
       H   -18.63628  -10.37214   11.73648
       O   -17.78431  -10.85577   11.74382
      H1   -18.09648  -11.62771   12.21267
       H   -18.18574   -5.70727   13.65618
       O   -18.36590   -4.86504   14.14653
      H1   -17.77548   -4.75171   14.81651
       H   -17.74501  -17.83004    9.38663
       O   -17.08683  -17.56069    8.77634
      H1   -16.38041  -18.16748    9.07960
       H   -15.42430  -11.71173    9.15635
       O   -14.49785  -11.85520    8.83153
      H1   -14.44150  -12.76845    9.17218
       H   -12.04049  -19.70196    9.94801
       O   -12.12706  -19.40652   10.84972
      H1   -11.46779  -18.74379   10.90025
       H   -14.03140   -7.65355   12.24636
       O   -13.86300   -7.73700   13.19152
      H1   -12.87104   -7.87025   13.18463
       H   -14.25409   -8.17300   15.26650
       O   -13.76067   -8.81749   15.72267
      H1   -13.66457   -9.57369   15.09005
       H   -13.03794   -8.75064   17.54286
       O   -12.57022   -8.39304   18.33332
      H1   -11.66926   -8.61225   17.95885
       H    -8.35323  -16.00112   16.37412
       O    -8.89710  -15.30850   16.81048
      H1    -8.78107  -14.56746   16.20861
       H   -15.15222  -17.64991   11.55330
       O   -15.06924  -17.10064   12.36418
      H1   -15.99961  -16.77957   12.37855
       H   -18.46937  -15.38507    9.60157
       O   -18.42704  -14.61848    9.04416
      H1   -19.25810  -14.06051    9.24761
       H   -11.90728  -14.37838   15.21859
       O   -11.70081  -14.14964   14.32120
      H1   -12.58576  -13.83933   14.00349
       H   -13.18810  -15.87230   11.45142
       O   -13.16417  -15.55899   10.54456
      H1   -14.00880  -15.00781   10.63317
       H    -9.85500  -17.90063   11.70244
       O   -10.28983  -17.33753   11.02548
      H1    -9.82595  -16.49108   11.11699
       H   -16.53897  -17.90992   16.18639
       O   -17.27344  -17.58128   15.59190
      H1   -17.93592  -18.27371   15.74763
       H   -12.08939  -12.67618   17.17082
       O   -12.59271  -13.53197   17.16993
      H1   -12.63712  -13.76548   18.10645
       H   -10.91847   -8.44566   14.57129
       O   -11.48773   -7.72172   14.40275
      H1   -12.15347   -7.89398   15.06705
       H   -14.08892  -11.24082   13.77795
       O   -13.39150  -11.43355   14.41984
      H1   -13.84310  -11.71526   15.22452
       H   -18.93572  -13.78398   17.03666
       O   -18.42269  -13.05500   17.50236
      H1   -19.10920  -12.34282   17.70583
       H   -15.51938  -14.12607    6.91157
       O   -15.88765  -13.53596    6.24347
      H1   -15.62497  -12.63762    6.50273
       H   -14.21617  -17.87612   17.25450
       O   -15.08937  -18.32204   17.18199
      H1   -14.79384  -19.16004   16.68035
       H   -17.70448   -9.68369   14.53832
       O   -18.09105   -8.80326   14.66807
      H1   -17.22658   -8.31426   15.00751
       H   -10.28305  -16.04462   16.24679
       O   -11.08875  -16.59611   16.03278
      H1   -10.67600  -17.23898   15.43270
       H   -14.79159  -15.39949   13.25245
       O   -14.77691  -14.42072   13.31579
      H1   -15.63301  -14.08047   13.00593
       H   -18.38868  -18.76692   11.76405
       O   -18.91031  -18.39951   11.02992
      H1   -19.61848  -19.07195   10.94155
       H   -19.31596  -15.27365   19.31743
       O   -18.37472  -15.40186   19.61565
      H1   -17.96993  -14.76442   19.02605
       H    -9.84228  -13.68401   14.26025
       O    -8.85777  -13.68743   14.38042
      H1    -8.55459  -13.77118   13.46183
       H   -15.43723   -6.10418   18.75448
       O   -15.77075   -6.15966   17.83060
      H1   -16.27814   -6.98539   17.71955
       H   -17.23497  -16.49779   14.27947
       O   -17.39236  -16.00192   13.40739
      H1   -18.37034  -16.09254   13.33661
       H   -17.48888  -14.36899   13.47025
       O   -17.36696  -13.38298   13.34661
      H1   -17.90071  -13.08295   14.10191
       H   -18.46002  -17.73017   18.24061
       O   -19.08790  -18.46857   18.14182
      H1   -19.24428  -18.51979   17.17992
       H   -14.98415  -19.58406   10.22318
       O   -14.68643  -18.63765   10.27876
      H1   -13.74050  -18.78825   10.52640
       H   -10.35549  -12.08298   17.93575
       O   -10.83510  -11.44210   17.49613
      H1   -11.41899  -11.20734   18.20399
       H   -15.82208   -6.35077   15.60680
       O   -16.17281   -6.93877   14.92913
      H1   -15.50023   -6.81510   14.24066
       H   -18.75078   -7.69474    9.14289
       O   -19.41574   -8.37684    9.24690
      H1   -19.43631   -8.64173    8.33712

