150
frame 0 | Written by MDAnalysis XYZWriter (release 2.4.3)
       H     8.30774   10.06489    2.27736
       O     7.88819   10.03873    3.17162
      H1     8.69219   10.15711    3.72002
       H     0.85767    5.48801    6.36914
       O     1.21855    4.65148    6.08417
      H1     1.31983    4.75061    5.12014
       H     4.52416    4.73678   12.36447
       O     4.77920    4.09314   11.70218
      H1     4.39055    3.30714   12.07741
       H     5.55583    8.66749   14.77563
       O     5.63453    7.96194   15.43357
      H1     5.54419    7.12344   14.94698
       H     6.74112    3.30508   11.88436
       O     7.61258    2.98007   12.27337
      H1     7.73910    2.19744   11.76172
       H    12.11617    8.69780    7.76960
       O    11.54322    8.34338    8.44627
      H1    11.11991    7.57378    8.09452
       H     2.42900    9.63162   13.75483
       O     3.16504   10.13609   13.39699
      H1     3.34536   10.80387   14.03839
       H     4.81776    4.40822    9.91234
       O     4.81484    4.76261    8.99999
      H1     4.07924    4.21477    8.61856
       H     3.16644    7.99045   10.10936
       O     3.49649    8.69827   10.69629
      H1     3.19692    8.30524   11.53473
       H    -0.12356   12.05045    8.30511
       O    -0.70556   11.93038    9.10796
      H1     0.04532   11.63632    9.59393
       H    -0.44399    3.50829    9.53550
       O     0.06311    3.01400    8.90483
      H1     0.93160    3.38526    8.74965
       H     3.77952    2.98507    6.79850
       O     3.09963    3.05729    7.46971
      H1     2.37459    3.47480    7.03901
       H     2.73238    6.33938   12.02093
       O     3.24004    6.78379   12.73443
      H1     2.59047    7.40241   13.04184
       H     0.60441    5.13057   11.30430
       O     1.48856    5.02458   11.73245
      H1     1.52727    4.16658   12.13307
       H     7.41512    5.97623    1.46856
       O     7.40893    5.37389    2.24286
      H1     6.48792    5.15077    2.35460
       H     4.85072    9.80239    2.07200
       O     4.38211   10.68585    1.96312
      H1     3.41082   10.47046    2.22905
       H     7.32529    8.41903   13.35752
       O     7.92422    7.67887   13.15672
      H1     8.51266    7.78485   13.88524
       H     8.44944   12.55326    6.54987
       O     9.02758   12.87009    5.87823
      H1     9.59914   13.47670    6.43466
       H    -1.59266    8.22093   10.27321
       O    -0.68249    7.92179   10.52056
      H1    -0.42787    7.46881    9.68339
       H     6.34980    8.64475    9.25904
       O     5.69946    9.23064    8.91218
      H1     4.94460    9.32120    9.61671
       H     9.36501    5.67857    7.70750
       O    10.19799    5.51061    7.29102
      H1    10.61318    4.90874    7.88610
       H    10.08257   11.25880    5.20046
       O    10.08731   10.30072    5.07977
      H1    10.92456   10.23902    4.58245
       H     7.95882    8.44958    3.59434
       O     8.24153    7.53417    3.87189
      H1     7.73371    6.97546    3.20559
       H     2.83399   12.35863    7.78476
       O     2.01896   11.85877    7.90721
      H1     1.90678   11.59130    6.92761
       H     5.43714    1.79599    4.83707
       O     5.60935    2.21723    5.68665
      H1     6.46486    1.91194    6.03054
       H     5.21194   12.80134    7.71543
       O     4.31967   13.13610    7.77036
      H1     4.14110   13.55730    6.87952
       H    10.21026   11.94449    9.65891
       O     9.25960   12.04521    9.37075
      H1     8.84290   11.87764   10.25181
       H     3.66956    5.65165    4.64129
       O     3.33945    6.51237    4.27102
      H1     2.98173    7.01915    5.05237
       H     1.73348   13.18648   10.43245
       O     1.73446   14.13152   10.42617
      H1     1.32925   14.37924    9.53692
       H     6.70246   11.10988    7.64949
       O     6.72532   11.93056    7.12014
      H1     6.62183   11.59478    6.25662
       H     4.78232    7.80835    5.90806
       O     5.05070    8.75426    5.87055
      H1     5.39598    8.97950    6.74451
       H     5.31961    8.74034    4.18494
       O     5.30484    8.36920    3.25035
      H1     4.63699    7.68498    3.47612
       H     0.46784    7.51666    7.24084
       O    -0.24582    6.88295    7.19363
      H1    -1.00147    7.44466    6.93014
       H     4.81845    7.87306    8.24925
       O     3.92503    7.53562    8.06844
      H1     4.18412    6.59819    7.98975
       H     5.97077   11.78856   10.67017
       O     6.90347   11.88794   10.78508
      H1     7.09993   11.86086    9.81065
       H     4.46503   14.15944    9.31174
       O     4.22728   14.38372   10.24841
      H1     3.29217   14.36362   10.13733
       H    10.66318    6.37545   11.11711
       O    10.82188    7.33097   11.16233
      H1    10.01815    7.67553   10.75182
       H     0.24599    7.95180   12.59574
       O     0.91493    8.18019   13.24430
      H1     0.50792    7.71936   14.06772
       H     7.92412    6.74498   10.54735
       O     7.89858    7.69005   10.29653
      H1     7.79175    8.17271   11.10646
       H     6.35764    4.99251   15.19465
       O     6.14172    5.53713   14.39149
      H1     6.97234    5.54131   13.84435
       H     2.66960    8.21035    6.80550
       O     2.18702    7.96482    6.03285
      H1     2.07014    8.90828    5.66168
       H     8.03917    7.79855    7.50184
       O     7.69883    6.97527    7.13544
      H1     7.56479    7.25710    6.23939
       H     4.97495    9.38547   12.82586
       O     5.86816    9.58895   13.11116
      H1     5.72647   10.48901   13.45702
       H     5.54581    3.87076    5.58900
       O     5.79721    4.81224    5.33581
      H1     6.74272    4.76042    5.21593
       H     7.46607    5.74696    8.57151
       O     7.92088    5.21847    9.24471
      H1     7.33980    4.47196    9.27668
       H     3.36856   10.66283    5.13090
       O     2.42278   10.87073    5.02927
      H1     2.36626   11.16115    4.07782
       H     8.71184    5.86440    4.79996
       O     8.50198    4.91798    4.64083
      H1     8.33067    4.84735    3.73580
       H     9.39989    9.71974    6.62180
       O     8.84606    9.59490    7.46942
      H1     9.28871   10.27813    7.96583
       H     2.47854   10.25051   10.29713
       O     1.99684   11.08568   10.45924
      H1     2.19362   11.43457    9.59874
       H     5.21591   11.25145    3.84942
       O     5.92972   11.67024    4.38159
      H1     6.66178   11.14728    4.02349

