150
frame 1 | Written by MDAnalysis XYZWriter (release 2.4.3)
       H    -5.15381   -8.61798    5.08785
       O    -5.66743   -7.93810    4.61438
      H1    -6.59773   -8.24086    4.82007
       H    -1.38935   -9.95078   -0.50711
       O    -0.81374  -10.68791   -0.70242
      H1    -0.52623  -11.19860    0.03874
       H     0.87421   -8.02587    1.51972
       O     0.73460   -8.12478    0.57092
      H1     1.23076   -7.46918    0.07918
       H    -5.73929   -7.96234   -2.63323
       O    -5.32398   -8.39131   -1.88249
      H1    -5.14897   -7.61155   -1.37547
       H    -7.18284   -8.13918    2.13033
       O    -8.10411   -7.83407    2.01475
      H1    -8.20166   -7.94300    1.01972
       H    -0.46788   -5.93637   -1.00938
       O     0.40554   -5.93705   -1.43434
      H1     0.23335   -6.72461   -2.00982
       H    -1.20446   -1.79097   -2.93330
       O    -1.40193   -1.15847   -3.66731
      H1    -1.09096   -1.52338   -4.48672
       H     0.64765   -4.86019   -2.98628
       O     0.23095   -4.19639   -3.60088
      H1     0.97305   -3.78374   -4.05130
       H    -6.80248   -5.30394    5.59838
       O    -7.77618   -5.25442    5.71983
      H1    -8.10351   -4.98426    4.87972
       H    -9.68960   -1.54531    2.34684
       O    -8.68650   -1.64795    2.28572
      H1    -8.51554   -0.91400    2.87431
       H    -3.21990   -5.56688   -5.53382
       O    -4.11938   -5.73084   -5.20623
      H1    -4.49568   -6.49743   -5.72399
       H    -4.85749   -1.85709   -3.71987
       O    -4.24171   -2.54811   -4.01516
      H1    -3.44219   -2.00904   -3.92266
       H    -1.16436   -5.39747   -6.28798
       O    -1.50389   -4.72861   -5.66519
      H1    -0.85351   -4.59936   -4.89679
       H    -2.06710   -5.25242    0.97972
       O    -2.25083   -5.50444    0.00274
      H1    -1.79013   -4.77865   -0.44917
       H    -9.51691   -7.90175    3.07864
       O   -10.08085   -8.04974    3.86603
      H1   -10.71122   -8.73393    3.51610
       H    -9.60395   -7.32784   -5.42494
       O    -9.36147   -7.52429   -4.48841
      H1    -9.80267   -6.77428   -4.03698
       H    -7.81302   -2.72100   -3.80236
       O    -7.36110   -2.17063   -4.43966
      H1    -6.68429   -2.69318   -4.92879
       H    -9.86178   -4.49237    2.55134
       O    -9.30411   -4.11729    3.26168
      H1    -8.93043   -3.30601    2.94032
       H    -0.01458   -2.82505   -0.82398
       O    -0.72913   -2.88785   -1.44850
      H1    -0.42425   -3.49051   -2.19684
       H    -3.10679  -10.94630   -4.52954
       O    -3.03547  -11.13019   -5.45307
      H1    -2.45791  -10.44506   -5.85035
       H    -4.96524   -6.32950    5.00598
       O    -4.98829   -5.43324    5.27255
      H1    -4.78073   -4.95386    4.45654
       H    -9.08572   -6.49683   -0.91856
       O    -9.14650   -5.54337   -0.64069
      H1    -8.29578   -5.31111   -0.26430
       H    -5.36517  -11.84628    0.81857
       O    -5.74116  -11.84101    1.73908
      H1    -5.28122  -12.40804    2.34050
       H    -2.26630   -7.42148    0.04028
       O    -2.03320   -8.32305    0.29670
      H1    -1.11272   -8.27407    0.43371
       H    -4.79223    0.20034   -0.89312
       O    -5.25825   -0.00134   -0.08569
      H1    -6.07978   -0.43252   -0.46218
       H    -7.62846   -7.41833   -3.97787
       O    -6.70811   -7.23788   -3.90299
      H1    -6.26276   -7.50153   -4.71837
       H    -8.48966   -8.90637   -1.11636
       O    -8.01263   -8.11385   -0.82339
      H1    -7.05508   -8.27416   -1.02455
       H    -5.33461   -7.39773   -7.15770
       O    -5.58278   -7.79520   -6.29419
      H1    -5.77181   -8.73498   -6.57994
       H    -6.17639   -5.33527   -3.48983
       O    -6.15837   -4.51772   -3.01737
      H1    -5.42886   -3.94603   -3.30991
       H    -1.57272  -11.22747    3.03491
       O    -2.37874  -11.62656    2.66814
      H1    -2.78517  -10.95494    2.11444
       H   -11.59402   -5.48093    1.23948
       O   -10.95465   -4.76810    1.28697
      H1   -10.34492   -5.03207    0.54561
       H    -5.66855    0.64096   -3.83530
       O    -5.64939   -0.22313   -3.40554
      H1    -6.37411   -0.72596   -3.82621
       H    -8.76027  -10.96994   -2.41040
       O    -9.24092  -10.18267   -2.36319
      H1    -8.94223   -9.56443   -3.03808
       H    -7.80233  -12.81260   -2.38014
       O    -7.26305  -12.20294   -2.95632
      H1    -6.54014  -12.04630   -2.34813
       H    -7.60265   -2.21882   -0.79693
       O    -7.62471   -1.53471   -0.11763
      H1    -7.84181   -1.90905    0.75327
       H    -5.76890   -4.59270    2.03910
       O    -4.96090   -4.26669    2.43318
      H1    -4.88788   -3.38537    2.09778
       H    -4.52314  -11.36759   -1.36982
       O    -5.13629  -11.88571   -0.82924
      H1    -4.83250  -12.78165   -0.93701
       H    -1.97992   -7.75764   -5.93894
       O    -2.31420   -7.88572   -5.07523
      H1    -2.89549   -7.10824   -4.85982
       H    -3.71537   -8.57950    2.88554
       O    -2.88505   -8.12846    2.83263
      H1    -2.70259   -8.05376    1.84778
       H    -4.12955   -5.55711   -0.57388
       O    -5.01591   -5.92114   -0.70642
      H1    -5.28725   -5.42350   -1.44053
       H    -2.36908   -1.35432    2.00911
       O    -1.39462   -1.28617    1.91751
      H1    -1.15398   -0.56976    1.38386
       H    -9.78395   -2.63922   -1.71001
       O    -8.99981   -3.14443   -2.04561
      H1    -9.04622   -4.09688   -1.77635
       H    -5.52776   -9.94433    2.05369
       O    -5.35468   -9.03201    2.10298
      H1    -5.43480   -8.71976    3.01293
       H    -4.46715   -1.57107    2.68141
       O    -4.18363   -1.74768    1.68234
      H1    -4.73263   -1.18560    1.09949
       H    -3.43614   -5.11767    2.24306
       O    -2.57608   -5.46572    2.53473
      H1    -2.67564   -6.45548    2.79548
       H     0.03195   -8.35889   -2.93055
       O    -0.78205   -7.87771   -2.85963
      H1    -1.11611   -7.86745   -3.76161
       H    -4.02662   -9.98733   -2.56127
       O    -3.40609  -10.71088   -2.67285
      H1    -2.51054  -10.52928   -2.28633
       H    -2.41883   -0.27129   -2.16806
       O    -2.76691    0.33208   -1.54156
      H1    -2.71951    1.27503   -1.88322
       H    -5.43887   -4.50035   -5.96681
       O    -5.74531   -3.82741   -6.60271
      H1    -5.12290   -3.94895   -7.32092
       H    -7.67171   -5.83842    1.57123
       O    -7.02689   -5.28701    1.06902
      H1    -6.31164   -5.88079    0.81752

