150
frame 11 | Written by MDAnalysis XYZWriter (release 2.4.3)
       H    -8.74220   18.16139   -7.17378
       O    -8.73523   18.24618   -6.19167
      H1    -9.60652   18.54340   -5.90535
       H   -15.31494   14.43437    3.89038
       O   -15.43864   14.69592    4.83637
      H1   -15.92728   15.54514    4.73896
       H   -17.18973   13.80660    4.82492
       O   -17.90933   13.43632    4.33394
      H1   -17.46844   12.75363    3.77110
       H   -12.87692   17.81634    0.19374
       O   -13.22989   18.50199    0.76761
      H1   -12.64572   19.26444    0.50670
       H   -12.73838   15.18631    0.18308
       O   -12.73283   15.95249   -0.40319
      H1   -13.18615   15.57807   -1.17763
       H   -17.97066   12.24900   -5.99283
       O   -18.70624   12.92342   -5.82331
      H1   -19.53109   12.59886   -6.14877
       H    -8.00549   19.37537    2.26896
       O    -8.14569   18.60887    1.69813
      H1    -9.06796   18.40148    1.69318
       H   -18.98552   19.05013    5.41270
       O   -18.58653   19.85571    5.73352
      H1   -18.34397   19.65157    6.60717
       H   -11.69406   19.44403   -4.73789
       O   -11.42153   18.78694   -5.33667
      H1   -11.78271   19.06600   -6.16219
       H   -11.28255   18.89420    7.29803
       O   -10.36041   18.66438    7.18636
      H1   -10.06676   19.23761    6.45658
       H   -13.41929   15.76301   -3.47533
       O   -14.08393   15.45823   -2.81819
      H1   -14.91638   15.92805   -2.94969
       H   -14.86638   17.78113    2.38451
       O   -15.35414   18.42647    2.96375
      H1   -16.25769   18.24450    2.75409
       H    -6.41372   17.39621   -2.73887
       O    -6.96219   18.16795   -2.62705
      H1    -6.46247   18.71461   -1.93891
       H   -19.43456   18.92725    0.08587
       O   -18.96979   19.45429    0.75193
      H1   -19.69526   19.79600    1.28065
       H   -13.72376   12.83331   -4.47860
       O   -14.30882   12.93547   -5.22117
      H1   -13.72014   13.04652   -6.00562
       H   -11.82075   18.10574    1.98819
       O   -10.90799   18.36330    2.30337
      H1   -10.60148   17.74233    2.93778
       H   -11.40874   15.68869   -4.37315
       O   -12.21774   16.22210   -4.53334
      H1   -11.87156   17.13773   -4.57871
       H   -16.07824   17.73398   -2.07738
       O   -16.49438   16.87046   -2.31269
      H1   -16.90039   16.91810   -3.17389
       H   -18.26422   18.30198    2.27981
       O   -18.11801   17.56976    2.91771
      H1   -18.75244   16.88519    2.69053
       H   -19.10943   14.39285   -0.08277
       O   -18.81195   13.74116    0.55470
      H1   -19.09121   14.06796    1.39795
       H   -15.69555   19.80476   -0.82194
       O   -15.14399   19.13896   -1.28540
      H1   -14.58007   18.95576   -0.50427
       H   -17.64727   12.19795    1.45557
       O   -16.92797   12.11818    2.03703
      H1   -16.81655   11.14161    2.08300
       H   -14.38418   13.75840   -2.27378
       O   -13.98521   12.97457   -1.86419
      H1   -14.65376   12.29903   -1.68692
       H   -16.23203   17.68200    5.53512
       O   -16.95880   17.07956    5.30791
      H1   -17.17180   17.27030    4.35592
       H    -9.97180   15.71218   -7.53246
       O   -10.47139   15.99788   -8.29324
      H1   -11.35209   16.06367   -7.95348
       H    -9.71377   15.81437    3.90808
       O    -9.97390   16.66532    4.31436
      H1   -10.82789   16.61288    4.73677
       H    -7.82333   15.43950   -2.61670
       O    -7.23477   14.76800   -2.21047
      H1    -7.63782   13.95154   -2.54517
       H    -9.77916   14.81011   -1.43335
       O    -9.95759   14.93523   -0.50673
      H1   -10.57870   15.68555   -0.53365
       H   -11.51704   11.06148   -1.67488
       O   -11.79955   11.43229   -2.51929
      H1   -12.47124   12.10925   -2.27884
       H   -15.78010   10.27677    0.54269
       O   -15.40845   10.73558   -0.21414
      H1   -16.06865   10.71263   -0.92719
       H    -8.86904   16.07044   -4.22206
       O    -8.97600   16.31939   -3.27198
      H1    -8.39292   17.14940   -3.15738
       H   -16.02610   14.74677    1.15660
       O   -15.49955   14.43479    1.87932
      H1   -15.68565   13.48883    1.87051
       H   -10.13634   13.55353    4.12308
       O    -9.63400   13.76214    3.29009
      H1   -10.29793   13.85893    2.62755
       H   -18.05206   13.91387   -2.98252
       O   -17.81151   13.08570   -3.34084
      H1   -18.27190   12.99841   -4.16032
       H   -19.03248   12.22401   -2.24376
       O   -19.33017   11.79668   -1.36834
      H1   -19.24511   12.42422   -0.67108
       H   -13.69840   16.37013   -7.29785
       O   -12.89848   15.80095   -7.15998
      H1   -12.49946   16.02099   -6.29553
       H   -18.68224   16.95731   -4.16587
       O   -17.82638   17.25452   -4.51040
      H1   -17.85196   16.97430   -5.38352
       H   -16.47263   19.65974   -8.96449
       O   -16.57701   19.07366   -8.18637
      H1   -16.44012   19.60745   -7.41150
       H   -14.75504   17.92910    7.34984
       O   -14.60648   18.22431    6.44856
      H1   -13.90714   17.59032    6.18617
       H   -17.92319   17.63853   -8.16746
       O   -18.46875   16.84106   -8.13877
      H1   -19.30727   17.01878   -7.61109
       H   -15.38966   17.74029   -8.01632
       O   -15.22187   16.77041   -8.01900
      H1   -15.74680   16.34692   -7.28882
       H   -12.45874   11.65049    0.82388
       O   -13.22393   11.99080    1.31112
      H1   -13.97437   11.73550    0.80156
       H    -8.35422   15.94566   -0.40630
       O    -7.87950   16.74600   -0.24454
      H1    -8.17471   17.09761    0.60916
       H   -12.87194   15.59274    6.55060
       O   -12.95650   16.12730    5.70508
      H1   -13.27636   15.51032    5.08277
       H   -18.41844   16.65369    6.42721
       O   -19.28324   16.32206    6.67120
      H1   -19.61569   16.99257    7.29860
       H   -18.18214   16.00541   -1.64480
       O   -18.80866   15.30592   -1.81865
      H1   -19.72469   15.63165   -1.77249
       H   -17.33630   10.14935   -2.25272
       O   -16.62496   10.75387   -2.59974
      H1   -17.06524   11.51588   -2.95174
       H   -10.79693   12.79279   -2.93467
       O   -10.22107   13.50853   -3.27171
      H1    -9.49319   13.02937   -3.71220
       H   -12.32874   13.40871    1.23477
       O   -11.66274   14.14317    1.44464
      H1   -11.12106   14.26051    0.58530
       H   -15.75031   14.03972   -5.70198
       O   -16.45982   14.50054   -6.07927
      H1   -17.30678   14.14003   -5.76790

