150
frame 11 | Written by MDAnalysis XYZWriter (release 2.4.3)
       H   -15.31494   14.43437    3.89038
       O   -15.43864   14.69592    4.83637
      H1   -15.92728   15.54514    4.73896
       H   -12.80085    9.91356    3.66175
       O   -13.60803   10.19513    3.23187
      H1   -13.31816   10.79513    2.57695
       H   -17.18973   13.80660    4.82492
       O   -17.90933   13.43632    4.33394
      H1   -17.46844   12.75363    3.77110
       H   -12.73838   15.18631    0.18308
       O   -12.73283   15.95249   -0.40319
      H1   -13.18615   15.57807   -1.17763
       H   -13.51961   10.63280   11.70597
       O   -14.24877   10.25902   12.20138
      H1   -15.07657   10.65691   11.94005
       H    -9.07617    8.54763    7.08778
       O    -8.38700    7.83129    7.26105
      H1    -8.80814    7.26863    7.98107
       H   -13.60703    9.82937    7.35463
       O   -12.97127    9.10813    7.50963
      H1   -12.93707    9.03263    8.45511
       H   -12.22105    6.97899    9.47140
       O   -12.17538    6.49910    8.64919
      H1   -12.39278    7.00421    7.87546
       H   -10.11560   17.08032    7.36731
       O    -9.97411   16.15863    7.71152
      H1    -9.96908   15.59737    6.92871
       H   -15.93524   10.89925    9.31061
       O   -15.49414   10.15850    8.83603
      H1   -15.84156    9.32327    9.12468
       H   -10.43595   16.87208   11.98050
       O   -10.18118   15.92839   12.08963
      H1   -10.99356   15.43536   11.94416
       H   -11.28255   18.89420    7.29803
       O   -10.36041   18.66438    7.18636
      H1   -10.06676   19.23761    6.45658
       H    -7.50098   15.07156    8.89554
       O    -7.20866   15.78864    8.37739
      H1    -8.05036   16.15713    8.11076
       H   -13.89047   16.93192    8.98415
       O   -14.76716   17.36324    9.29441
      H1   -14.58029   17.81743   10.11246
       H   -10.95172    9.87028    7.65590
       O   -10.21210    9.92925    7.07087
      H1   -10.49710    9.90587    6.13131
       H    -8.50042   17.77037    4.67729
       O    -8.04151   18.62830    4.95292
      H1    -7.72002   18.63500    5.82018
       H    -8.80779   14.94250   12.62675
       O    -8.22308   14.16728   12.77572
      H1    -7.68651   14.26046   11.92586
       H   -11.82075   18.10574    1.98819
       O   -10.90799   18.36330    2.30337
      H1   -10.60148   17.74233    2.93778
       H   -11.44411    6.95671    3.93335
       O   -10.74645    7.16055    3.32693
      H1   -10.11933    6.47292    3.48898
       H    -8.79228   12.06379    3.10289
       O    -8.61074   11.30433    3.72676
      H1    -8.59016   10.48115    3.24504
       H    -9.71377   15.81437    3.90808
       O    -9.97390   16.66532    4.31436
      H1   -10.82789   16.61288    4.73677
       H    -5.17615    9.92978    4.79394
       O    -5.84578    9.53026    4.30166
      H1    -6.29539   10.21642    3.94467
       H   -12.51913    7.89150    6.09792
       O   -12.51017    7.21308    5.34435
      H1   -13.52400    7.04805    5.29162
       H   -12.43208   13.69270   12.33393
       O   -12.53759   14.35815   11.59708
      H1   -12.34803   13.96273   10.75344
       H    -6.06485   13.00575    2.99955
       O    -5.39289   12.88898    2.30361
      H1    -5.90152   12.59622    1.54531
       H   -12.58850   14.84371    8.71682
       O   -12.50333   15.69274    8.37553
      H1   -11.57890   15.83958    8.10338
       H   -16.02610   14.74677    1.15660
       O   -15.49955   14.43479    1.87932
      H1   -15.68565   13.48883    1.87051
       H   -10.13634   13.55353    4.12308
       O    -9.63400   13.76214    3.29009
      H1   -10.29793   13.85893    2.62755
       H   -11.15343   13.19188    6.41737
       O   -10.50516   13.79657    5.94535
      H1    -9.78556   13.47621    6.52999
       H    -5.48210    8.29551    8.01587
       O    -6.23338    8.35955    8.63692
      H1    -7.07292    8.10933    8.23191
       H   -10.25232   10.52297    4.20849
       O   -10.78714    9.85315    4.57890
      H1   -10.55487    9.03697    4.07074
       H   -14.75504   17.92910    7.34984
       O   -14.60648   18.22431    6.44856
      H1   -13.90714   17.59032    6.18617
       H    -9.43096    8.68428    1.39031
       O    -8.75908    9.36935    1.47514
      H1    -7.96222    9.08205    1.01102
       H   -14.71590   14.36726   11.66890
       O   -15.46948   14.03149   11.17347
      H1   -16.16452   14.76515   11.14916
       H   -12.98701    8.06440   11.27103
       O   -12.12600    8.43855   10.96296
      H1   -11.34318    8.05761   11.40413
       H   -12.45874   11.65049    0.82388
       O   -13.22393   11.99080    1.31112
      H1   -13.97437   11.73550    0.80156
       H   -14.02275   13.46931    6.23704
       O   -13.58585   12.77075    6.71617
      H1   -14.14449   11.98579    6.48003
       H   -15.45381    9.84519    5.87981
       O   -14.75809   10.55797    5.84733
      H1   -14.35193   10.38551    4.98444
       H   -17.13828   15.16845    8.85083
       O   -16.97563   15.83826    9.52946
      H1   -16.16585   16.29505    9.28862
       H   -12.87194   15.59274    6.55060
       O   -12.95650   16.12730    5.70508
      H1   -13.27636   15.51032    5.08277
       H    -6.61347   13.12764   10.93088
       O    -6.60143   14.02652   10.64444
      H1    -5.83158   14.39667   11.09033
       H    -9.42783   12.53808    8.59857
       O    -9.07342   12.39287    7.69781
      H1    -9.52561   11.54487    7.36455
       H    -5.50238   16.60773    5.58712
       O    -5.28492   15.99425    6.33880
      H1    -5.97338   15.95315    6.98683
       H    -8.89222   13.28172   10.68831
       O    -9.71382   13.16430   10.16333
      H1   -10.16850   12.54277   10.80112
       H    -6.59532    9.94635    8.31295
       O    -6.77029   10.91774    8.25708
      H1    -7.72075   11.11098    8.19977
       H   -10.15010   10.29105    0.58923
       O   -10.87059   10.63971    0.15256
      H1   -11.55207    9.95524    0.07838
       H   -12.32874   13.40871    1.23477
       O   -11.66274   14.14317    1.44464
      H1   -11.12106   14.26051    0.58530
       H   -12.58878   11.72322   10.16656
       O   -11.81264   11.18109   10.40886
      H1   -12.00795   10.22961   10.48934
       H   -14.32026   13.45613    9.75110
       O   -13.44422   13.18728    9.34189
      H1   -13.57300   13.04419    8.44411
       H    -5.17070   12.77806    6.63167
       O    -5.19997   11.90474    6.34984
      H1    -5.80747   11.49677    7.03612

