150
frame 4 | Written by MDAnalysis XYZWriter (release 2.4.3)
       H    -4.51677    2.60821   -2.29570
       O    -4.14985    2.02898   -2.97349
      H1    -4.79466    2.15652   -3.65576
       H     4.01303   -4.66350   -5.68998
       O     4.22203   -3.80122   -6.04765
      H1     3.53985   -3.46191   -6.65976
       H    -4.62919   -3.00481   -7.40016
       O    -4.15290   -2.11715   -7.46832
      H1    -4.64652   -1.61078   -8.13533
       H     4.10031   -0.97059   -3.03933
       O     4.16820   -1.69525   -3.64423
      H1     5.07195   -2.07819   -3.39615
       H    -7.76367    2.16893   -4.53596
       O    -7.11306    2.54780   -3.96508
      H1    -6.95665    1.97278   -3.18803
       H    -0.70122   -2.59293   -4.45533
       O    -1.01926   -1.76577   -4.09312
      H1    -0.34382   -1.35321   -3.51358
       H     0.41201   -6.82144   -3.69175
       O     0.84926   -5.95455   -3.95038
      H1     1.81980   -6.15956   -3.88721
       H    -4.35382   -1.33872   -6.06702
       O    -4.69801   -0.86736   -5.28637
      H1    -3.99786   -0.16420   -5.16511
       H    -1.31186    3.76617   -7.72039
       O    -1.52830    4.52801   -8.25201
      H1    -1.09036    4.55750   -9.14450
       H    -2.69392   -5.79887   -6.59105
       O    -3.57908   -6.12105   -6.55430
      H1    -3.67383   -6.58006   -7.39289
       H    -1.15317    1.51126   -7.92510
       O    -0.35255    1.93859   -8.26433
      H1    -0.45710    1.96017   -9.22230
       H    -3.99072   -2.19491   -2.73581
       O    -3.25742   -2.66139   -2.34658
      H1    -2.53397   -2.60005   -3.01941
       H    -0.36147   -5.46746   -6.84209
       O    -0.91360   -5.04281   -6.16199
      H1    -0.45032   -5.17572   -5.30729
       H    -1.82345   -4.87081    0.48664
       O    -2.14173   -4.94761   -0.42014
      H1    -1.42642   -4.79410   -1.00990
       H     0.55751    2.86068    0.59642
       O     0.74481    2.76328   -0.38467
      H1     0.53212    1.79497   -0.46306
       H    -0.55161   -3.36265   -7.08592
       O    -0.24604   -2.60833   -7.51782
      H1     0.45196   -2.98611   -8.11341
       H     1.35283   -1.45006   -1.53101
       O     1.57471   -2.27161   -1.95637
      H1     1.99692   -2.11637   -2.75903
       H     0.20410   -3.40537   -2.31442
       O    -0.36152   -4.20808   -2.42698
      H1     0.12418   -4.76178   -3.06037
       H    -6.82389    0.67908   -7.58694
       O    -6.70574   -0.23525   -7.23577
      H1    -6.06412   -0.20958   -6.49004
       H    -0.69113    5.80897   -2.58022
       O    -1.05352    4.94064   -2.35640
      H1    -1.62610    4.87598   -1.53362
       H     4.49166    3.34357   -4.32963
       O     3.61156    3.23878   -4.69063
      H1     3.05973    3.30797   -3.94753
       H     2.27165   -2.63894   -5.58854
       O     1.51590   -2.15502   -5.32609
      H1     0.86408   -2.23449   -6.03939
       H     4.76429    0.86002   -2.89618
       O     3.91862    0.75719   -2.41610
      H1     4.20931    0.48862   -1.54025
       H    -1.50849    1.15766  -10.58331
       O    -1.13765    1.97970  -10.98708
      H1    -1.94096    2.48343  -10.94727
       H    -0.31699    5.31287   -7.11061
       O     0.53021    5.47483   -6.64630
      H1     0.34044    5.91100   -5.81638
       H     1.80448    4.75289   -2.62288
       O     2.11440    3.87666   -2.32981
      H1     1.55282    3.41669   -1.68646
       H    -1.55690   -3.44730   -8.55794
       O    -2.45691   -3.61336   -8.94630
      H1    -3.02914   -3.08662   -8.38466
       H    -1.45529   -0.08733   -4.84372
       O    -2.06841    0.55649   -5.14810
      H1    -1.85397    1.31537   -4.58467
       H    -0.95978   -0.43731   -1.09691
       O    -0.20389    0.14768   -1.32951
      H1    -0.39311    0.76823   -2.07914
       H    -5.29175    5.09268   -5.85323
       O    -4.66567    5.57493   -5.34084
      H1    -3.88745    4.95012   -5.24668
       H    -4.58672   -0.85266   -0.03493
       O    -5.15075   -0.93978    0.82313
      H1    -6.04021   -1.18587    0.51815
       H    -6.55094   -0.17393   -2.28337
       O    -6.83499    0.73391   -2.04998
      H1    -7.68027    0.68979   -1.55710
       H     2.80248    0.73774   -4.31440
       O     1.96179    0.38051   -4.69680
      H1     2.08252   -0.57712   -4.81393
       H     0.68696    0.27728   -9.84356
       O     1.40230    0.15997  -10.45422
      H1     1.95860    0.94426  -10.48913
       H    -5.03713   -5.12608   -3.40365
       O    -5.20170   -4.53175   -2.67523
      H1    -4.36812   -4.08972   -2.53704
       H     0.03004    2.86358   -3.25288
       O     0.01802    1.90149   -3.36855
      H1     0.86357    1.58092   -3.65217
       H     2.14134    1.03635   -6.43489
       O     2.18595    1.46086   -7.29265
      H1     1.27010    1.63239   -7.46273
       H    -5.53212   -1.16144   -3.71798
       O    -5.86616   -1.55875   -2.90121
      H1    -6.45614   -2.30622   -3.17228
       H    -2.25370   -0.45257   -9.09907
       O    -1.74444   -0.57757   -9.87902
      H1    -1.35779   -1.44952   -9.81949
       H    -5.77160   -0.18920   -8.95595
       O    -5.13265   -0.40173   -9.62239
      H1    -5.66151   -0.90660  -10.34039
       H    -2.16663   -2.26519    0.89499
       O    -1.57760   -2.24420    0.09405
      H1    -2.13087   -2.78845   -0.45417
       H    -2.65603    1.44685    0.31062
       O    -2.39259    2.07600    0.99619
      H1    -3.16142    2.13355    1.60090
       H    -3.37883    3.88204   -8.53043
       O    -4.11700    3.25146   -8.62333
      H1    -4.23717    3.03491   -9.54481
       H    -2.95335    3.08030   -3.91352
       O    -2.55243    3.82827   -4.39771
      H1    -2.02185    4.28905   -3.70744
       H     0.87580   -0.65624    1.91921
       O     1.21244   -1.21925    1.21114
      H1     0.48307   -1.44938    0.64602
       H     4.59721   -0.14276   -7.50915
       O     3.92581   -0.12458   -8.21898
      H1     3.29353    0.50706   -7.83440
       H    -3.25474   -0.98928   -1.62953
       O    -3.44018   -0.16511   -1.13188
      H1    -3.90872    0.31394   -1.81207
       H    -2.55786    0.48975   -6.92540
       O    -2.94642    0.67741   -7.75829
      H1    -3.55878    1.35626   -7.55097
       H     3.12156   -2.10527   -8.52312
       O     2.86933   -3.01762   -8.29417
      H1     2.31561   -3.38015   -8.99757
       H    -4.81904   -4.85158   -6.74340
       O    -5.53766   -4.22645   -6.99398
      H1    -6.05530   -4.69818   -7.67574

