150
frame 0 | Written by MDAnalysis XYZWriter (release 2.4.3)
       H     7.95161  -15.91013    6.07932
       O     8.35913  -15.55775    6.88953
      H1     9.04955  -14.98078    6.49648
       H    10.34647  -15.52530   -2.71313
       O    10.73512  -15.66302   -1.87425
      H1    11.01453  -16.57268   -1.93084
       H     8.21954   -8.53123   -1.29095
       O     8.94569   -8.99006   -0.72680
      H1     8.52115   -9.88560   -0.55162
       H     3.31073  -17.62890   -1.93134
       O     3.49057  -18.44391   -1.48627
      H1     3.63184  -18.21394   -0.51614
       H     6.95201  -18.80849    7.14602
       O     6.02020  -18.58339    6.76919
      H1     6.27044  -17.92760    6.09961
       H     5.73250  -14.80019   -4.18527
       O     5.03164  -14.16858   -4.29330
      H1     5.51500  -13.33709   -4.41482
       H     8.00473  -13.21209    2.37071
       O     8.95168  -12.93408    2.52046
      H1     8.92967  -11.91518    2.75436
       H    -0.78229  -13.19368    1.62709
       O    -1.60802  -13.63623    1.64013
      H1    -2.02972  -13.21021    2.42595
       H     0.42663  -12.75344   -4.38498
       O     1.28650  -13.16860   -4.37808
      H1     0.91714  -14.05290   -4.21322
       H     6.85475  -11.09461    5.92507
       O     6.47739  -11.26458    5.01542
      H1     6.20559  -12.20841    4.97805
       H     2.60603  -19.08201   -4.53423
       O     1.70179  -18.88466   -4.76278
      H1     1.69623  -18.46877   -5.64297
       H     9.50566  -15.84651   -5.01057
       O    10.43083  -16.01555   -5.25274
      H1    10.96539  -15.21455   -5.05122
       H     1.65384  -12.38126    2.15888
       O     0.67531  -12.35171    1.97166
      H1     0.42694  -11.49897    1.48496
       H    -0.68697  -16.68143   -3.44835
       O    -0.33751  -15.85696   -3.78941
      H1    -1.17581  -15.34328   -3.66484
       H     4.73586  -10.94579    4.95468
       O     3.82142  -10.81284    4.80265
      H1     3.66711  -11.19069    3.93360
       H     3.89067  -19.94966    4.58548
       O     3.44628  -19.36622    5.27943
      H1     4.15272  -19.34266    5.93693
       H    10.76764  -16.86303    0.76720
       O    10.40584  -16.06338    1.22450
      H1    10.32641  -15.36082    0.54225
       H     7.89025  -16.41252   -3.86365
       O     7.72131  -15.83803   -4.65379
      H1     7.25609  -16.50745   -5.29238
       H     3.42854   -8.10356   -0.45723
       O     3.74736   -8.62990    0.33134
      H1     3.32763   -8.12479    1.06507
       H     2.05173  -15.87018   -2.83754
       O     2.97010  -16.08275   -2.76572
      H1     3.37748  -15.98509   -3.67809
       H     4.11195  -15.33569   -0.76646
       O     4.89289  -15.57613   -0.24329
      H1     5.39627  -14.78378    0.01075
       H     9.57276  -16.71206    2.95720
       O     8.83247  -17.28262    3.12767
      H1     8.38988  -17.33174    2.30737
       H     7.42898  -17.04596   -0.75208
       O     7.46844  -16.46155   -1.48038
      H1     6.81639  -15.83084   -1.19042
       H     3.29146  -17.79740    4.66425
       O     3.16187  -16.84799    4.58461
      H1     3.16890  -16.53475    5.49857
       H     3.19264  -10.57874    1.60978
       O     3.53009  -11.38433    2.03320
      H1     4.18138  -11.71760    1.37399
       H    -1.28859  -12.10195   -0.79862
       O    -0.37486  -11.93711   -1.06539
      H1    -0.13937  -12.86612   -1.04876
       H     4.60445  -16.56957    2.12302
       O     5.12164  -16.37403    2.89551
      H1     4.42972  -16.56171    3.58090
       H    -0.35798  -14.19449    4.49593
       O     0.26386  -13.45836    4.52797
      H1     0.24378  -12.88634    3.69868
       H     5.54524  -12.01942   -0.02349
       O     5.05763  -12.82131    0.33466
      H1     4.49027  -13.05337   -0.39828
       H     9.87506  -20.14359    4.28978
       O     9.71006  -19.20930    4.65411
      H1     9.48290  -18.72179    3.85503
       H     3.97159  -10.80251   -5.00270
       O     3.16746  -10.69626   -5.51259
      H1     2.45316  -11.12865   -5.04946
       H     4.37480  -15.63044   -5.37511
       O     3.62929  -16.12887   -5.85920
      H1     3.04966  -15.41598   -6.15677
       H     5.97285  -13.45528    1.86895
       O     6.47995  -13.96948    2.49685
      H1     5.99125  -14.78729    2.60329
       H     0.39917  -17.42704    0.49023
       O     0.74662  -17.13531   -0.40972
      H1     0.21502  -17.71047   -0.96937
       H     9.60472  -12.87088   -3.29943
       O     9.07890  -12.52422   -2.59494
      H1     8.10825  -12.62367   -2.93333
       H    10.51075  -14.57326    4.91615
       O     9.68815  -14.19949    5.16366
      H1     9.47608  -13.96387    4.23850
       H     6.18662  -16.74784    4.29760
       O     6.82949  -16.84806    5.02122
      H1     7.58524  -17.09488    4.38086
       H    10.54935  -18.80946   -3.90313
       O     9.58145  -18.81189   -3.84790
      H1     9.44173  -19.36460   -4.61331
       H     1.55842  -14.31928    0.75835
       O     1.28444  -14.46612   -0.16938
      H1     1.05788  -15.42399   -0.13576
       H     6.23788   -9.40623   -3.10221
       O     5.48274   -9.90542   -3.46333
      H1     4.86662   -9.72760   -2.74825
       H     6.86787  -10.04828    0.83280
       O     6.33413  -10.34201    0.09197
      H1     5.53919   -9.83026    0.14248
       H     9.49256  -13.21800    0.54845
       O    10.07777  -13.33278   -0.20005
      H1     9.44540  -13.25995   -0.95033
       H     6.67131  -11.41648   -4.53108
       O     6.89520  -12.30646   -4.32608
      H1     7.60659  -12.49556   -4.91241
       H     1.71461  -18.60620    3.07636
       O     1.17090  -17.82349    3.04879
      H1     1.67919  -17.16054    3.55927
       H     4.00137  -12.77876   -2.81814
       O     3.43352  -12.11819   -2.40489
      H1     2.66553  -12.64191   -2.19553
       H     6.57698  -17.66887   -7.17685
       O     6.11491  -16.92426   -6.77105
      H1     5.20241  -17.19864   -6.68927
       H    -1.38485  -18.95564   -3.64321
       O    -0.57972  -18.54685   -3.23224
      H1     0.04442  -18.76509   -3.96049
       H     5.17125  -18.20262   -2.32289
       O     5.95300  -18.22516   -2.90176
      H1     6.67068  -17.75138   -2.49649
       H     8.28470  -18.50572    0.38241
       O     7.45292  -18.19359    0.79910
      H1     6.93293  -18.99289    0.63635
       H    10.61297  -18.61235   -0.08752
       O    11.43657  -18.26974    0.39770
      H1    12.00474  -18.26955   -0.42368

