150
frame 0 | Written by MDAnalysis XYZWriter (release 2.4.3)
       H    -2.64067  -10.04963  -14.32809
       O    -2.46197   -9.37273  -13.60429
      H1    -2.98812   -9.73666  -12.87267
       H    -6.39475   -7.70460  -11.97379
       O    -6.68642   -8.05831  -11.12658
      H1    -6.01781   -7.62975  -10.56123
       H    -3.72895  -12.93577  -16.63078
       O    -3.84609  -13.86349  -16.77382
      H1    -4.11939  -13.87074  -17.68650
       H    -1.53849   -3.08477  -13.67188
       O    -2.14277   -2.49417  -14.10442
      H1    -1.71669   -1.63223  -13.84486
       H    -5.20305  -13.11162  -15.19382
       O    -5.75943  -13.31423  -14.45930
      H1    -6.66636  -13.36218  -14.85806
       H    -1.83568  -11.53431  -15.85956
       O    -2.72607  -11.57061  -15.49992
      H1    -2.63904  -12.27814  -14.82128
       H    -6.63011   -1.69347  -10.86875
       O    -7.57799   -1.43210  -11.04835
      H1    -7.77649   -0.98918  -10.21949
       H   -10.02838   -8.08833   -9.65902
       O   -10.51556   -7.58836   -9.02924
      H1   -11.13341   -7.20074   -9.59457
       H    -5.58906   -1.95744  -15.03623
       O    -5.55494   -1.32019  -15.75169
      H1    -5.56930   -0.49700  -15.21715
       H   -10.25477   -9.81760  -16.40597
       O    -9.67877   -9.42219  -15.78756
      H1    -9.30045  -10.25798  -15.35428
       H    -8.87087   -7.10111  -12.14760
       O    -9.34425   -6.96796  -12.91088
      H1    -9.30270   -5.98916  -13.07822
       H    -1.83676  -10.08409   -8.97288
       O    -1.52877   -9.95605   -9.88590
      H1    -0.62318  -10.26615   -9.87910
       H    -8.94621   -4.42087  -11.18825
       O    -8.01591   -4.11204  -10.97859
      H1    -8.14162   -3.13251  -10.97576
       H     0.52451   -2.69104  -12.10120
       O     0.07430   -2.87275  -11.28079
      H1     0.36169   -3.74991  -11.02368
       H    -6.31670   -5.40191  -13.48114
       O    -5.77827   -5.42031  -12.70707
      H1    -6.48079   -5.25563  -12.06339
       H    -2.96244   -5.98880  -12.43694
       O    -3.33722   -6.52165  -11.67819
      H1    -3.92807   -5.90415  -11.27944
       H     2.03335   -4.35610  -10.11621
       O     1.35604   -4.98407  -10.54900
      H1     0.72117   -5.13997   -9.84990
       H    -7.77968   -2.79854  -13.94639
       O    -8.11460   -1.82895  -13.94275
      H1    -7.83807   -1.56189  -13.00711
       H    -0.55171   -7.83390  -11.90230
       O    -0.05767   -7.33424  -12.51428
      H1     0.86297   -7.68272  -12.41602
       H    -6.45080   -8.97398  -13.87989
       O    -7.21411   -9.50181  -13.74292
      H1    -7.96156   -8.83498  -13.87963
       H    -0.64295   -2.82976  -16.87560
       O    -1.32126   -3.39933  -16.52936
      H1    -1.63996   -2.84818  -15.79061
       H    -2.79704  -10.93241  -11.04616
       O    -3.59166  -11.09478  -11.57763
      H1    -4.29925  -10.67381  -11.04699
       H    -9.50909   -4.56753  -14.69832
       O    -8.59412   -4.72813  -14.42008
      H1    -8.20564   -5.23298  -15.13492
       H    -2.65376   -7.60493  -16.81405
       O    -3.41418   -6.97990  -16.98497
      H1    -4.09812   -7.68320  -16.97320
       H    -5.90973  -11.31232  -10.48998
       O    -5.80028  -10.47220   -9.98519
      H1    -6.48426   -9.87798  -10.51426
       H    -1.10153   -4.55351  -12.04967
       O    -1.11413   -4.93050  -12.91836
      H1    -0.53062   -5.66132  -12.69910
       H     0.94138   -6.39764  -15.45451
       O     0.83303   -7.31599  -15.13051
      H1     0.21529   -7.32386  -14.39327
       H    -5.74949  -13.69784  -11.57834
       O    -5.42210  -13.11567  -10.82247
      H1    -4.62082  -12.73734  -11.21813
       H    -1.80269   -8.84254   -7.15781
       O    -2.53567   -9.45804   -7.33283
      H1    -3.29885   -8.89296   -7.38368
       H    -2.35264   -4.17069  -17.91254
       O    -2.82770   -4.29433  -18.75096
      H1    -3.04623   -3.35232  -18.96615
       H    -8.05291   -4.86648   -9.40771
       O    -7.73305   -5.13064   -8.49455
      H1    -8.59476   -5.52275   -8.19627
       H    -0.97567   -9.05934  -16.81065
       O    -1.00122   -8.11460  -16.75789
      H1    -0.24344   -7.93829  -16.10485
       H    -7.57718  -11.18430  -12.71526
       O    -8.14419  -11.66991  -12.09497
      H1    -7.67366  -12.56212  -12.02674
       H    -8.46398   -7.63361  -17.74879
       O    -7.65121   -7.98199  -17.34703
      H1    -8.04445   -8.27544  -16.52082
       H    -5.97657   -6.00182   -8.95437
       O    -5.18649   -6.44973   -9.28634
      H1    -4.48337   -6.28815   -8.60881
       H    -6.72861  -10.73122  -16.91055
       O    -7.50363  -11.29136  -17.05246
      H1    -7.83468  -10.94258  -17.91125
       H    -9.54962  -10.40921  -10.13841
       O    -9.25361   -9.51108  -10.57559
      H1    -8.40035   -9.80139  -10.89572
       H    -2.39478   -2.61801   -8.09343
       O    -2.26355   -3.19739   -8.86075
      H1    -2.58451   -4.05743   -8.58675
       H    -2.04266   -6.67749   -8.22999
       O    -2.77155   -6.11119   -7.86645
      H1    -2.51789   -6.05086   -6.94796
       H    -2.04279   -7.01321  -10.61771
       O    -1.41511   -7.39636   -9.94950
      H1    -1.59262   -8.33176  -10.02652
       H     1.65884   -9.02997  -14.57674
       O     2.30779   -9.72387  -14.46401
      H1     1.75894  -10.43121  -14.10092
       H    -3.89441   -8.46481  -13.90570
       O    -4.71174   -7.92455  -13.87422
      H1    -4.52371   -7.21382  -13.25665
       H    -1.15696   -8.54790  -18.74763
       O    -1.54063   -8.57840  -19.62640
      H1    -0.74477   -8.68708  -20.18370
       H    -3.99753   -3.03789  -13.78954
       O    -4.93695   -2.97629  -13.47403
      H1    -5.01605   -3.87070  -13.13331
       H    -0.93307   -9.99821  -13.04169
       O    -0.15094  -10.51607  -12.96213
      H1     0.41505  -10.06877  -12.27704
       H    -4.44634   -0.85331  -10.42042
       O    -4.51105   -1.40197   -9.60696
      H1    -3.85935   -2.16643   -9.70213
       H    -4.33156  -10.32992  -18.34316
       O    -4.94569   -9.66767  -17.97201
      H1    -5.06397   -8.97349  -18.62522
       H    -5.35573   -5.22392  -17.25968
       O    -5.30806   -4.47643  -17.89569
      H1    -4.32414   -4.61980  -18.02894
       H     1.06616   -4.71223  -16.60251
       O     0.92856   -4.72328  -15.62399
      H1     0.11378   -4.20901  -15.57013
       H    -6.56615   -6.91792  -16.01002
       O    -6.19219   -6.12263  -15.64953
      H1    -5.45746   -6.39731  -15.11378

