150
frame 2 | Written by MDAnalysis XYZWriter (release 2.4.3)
       H     5.34850   -0.58112    4.15992
       O     5.27737   -0.68927    3.20927
      H1     5.81233    0.08124    2.98577
       H     5.67350    4.07601   11.14355
       O     4.74535    3.94614   11.34277
      H1     4.73042    3.12313   11.88931
       H     6.44551    3.01040    5.04218
       O     6.88795    2.19109    4.70308
      H1     7.05206    1.64104    5.50055
       H     2.79568    3.47169    8.84874
       O     3.77898    3.61644    8.91705
      H1     4.06752    3.49508    9.84019
       H     3.33044   -3.16217   11.35456
       O     3.90873   -3.57971   12.01610
      H1     3.22299   -3.98680   12.58521
       H     7.56170   -2.42683   11.05676
       O     6.91391   -1.99640   10.46650
      H1     6.53451   -2.77680   10.01198
       H     4.76416   -6.69263    3.97783
       O     4.99777   -6.22173    4.74234
      H1     4.57401   -5.41921    4.75969
       H     5.52720   -2.23654    1.92637
       O     5.81788   -2.87826    1.21496
      H1     6.45903   -2.34774    0.71089
       H     5.41220   -3.81671    8.15913
       O     5.87723   -4.10808    8.97755
      H1     5.24582   -4.48401    9.58227
       H     2.98563   -2.81785    7.36974
       O     3.66740   -3.53217    7.39051
      H1     3.05486   -4.22934    7.60348
       H     3.67638    5.37379    5.20022
       O     3.04086    6.02431    4.82893
      H1     2.31429    5.52743    4.39723
       H     3.23120   -1.90159    3.93629
       O     2.59232   -1.24283    4.23676
      H1     3.11000   -0.44202    4.31642
       H    12.73983    1.96626    4.63710
       O    13.58273    2.37677    4.46877
      H1    13.25274    3.26423    4.26556
       H     6.42569    5.17574    4.80497
       O     5.88510    4.62938    5.39357
      H1     6.00767    5.08534    6.29897
       H     3.75306   -3.57132    5.54255
       O     3.96259   -3.64844    4.59503
      H1     3.10042   -3.71534    4.11342
       H     9.46938   -1.24218    2.83269
       O     8.89743   -0.98831    3.50317
      H1     8.08094   -0.73257    3.01639
       H     8.06161   -4.78011    8.71641
       O     8.79229   -5.18692    8.20276
      H1     8.34893   -5.75949    7.56484
       H     2.32757   -0.69367    9.97722
       O     2.33420   -0.19360    9.17450
      H1     3.25997   -0.04085    8.92805
       H    13.51798    0.32128    7.25617
       O    13.76266   -0.61657    7.55405
      H1    13.98611   -1.13465    6.74335
       H     6.76399   -0.46740    6.50013
       O     6.52711    0.35262    6.92963
      H1     7.00637    0.36266    7.76609
       H     7.12425    1.35823    1.30049
       O     7.06064    1.03321    2.17222
      H1     7.01608    1.76572    2.79450
       H     7.48269    6.45183    7.66756
       O     6.66578    5.90682    7.80818
      H1     6.02697    6.45352    8.32702
       H     9.70056    1.23693   12.38657
       O     9.09807    0.51862   12.46702
      H1     8.45680    0.58082   11.78330
       H     0.85265   -1.91463   11.62846
       O     1.51542   -2.05381   10.98510
      H1     0.88752   -2.43060   10.35412
       H    13.56844   -1.76501    4.10369
       O    13.43152   -0.90365    3.66417
      H1    12.56416   -0.57794    3.90209
       H     6.31028    2.03580   12.79341
       O     6.93390    2.06380   12.07251
      H1     6.37557    1.61491   11.34607
       H     8.70200   -0.63062    8.34676
       O     8.17849   -0.08315    8.97063
      H1     7.80646   -0.75340    9.56759
       H     4.85129    1.00082    7.23255
       O     3.97401    1.40082    7.35182
      H1     4.04413    2.21468    7.85428
       H     8.53560   -4.27350   12.27184
       O     8.80911   -3.39532   11.98742
      H1     9.39970   -3.07562   12.71173
       H    11.17479   -1.02684    7.48997
       O    10.26151   -0.86888    7.16560
      H1    10.12290   -1.74439    6.78959
       H    11.61246   -0.38786   10.01465
       O    11.30007    0.48831   10.10815
      H1    10.38250    0.44899   10.19287
       H     2.18512   -1.39066    6.36283
       O     1.59937   -1.71479    7.01844
      H1     1.69598   -1.07920    7.75303
       H     6.52275   -2.38261    4.92626
       O     7.02111   -1.85377    5.52884
      H1     7.83676   -1.74828    5.04556
       H     5.84053   -0.41229   10.74619
       O     5.25674    0.34230   10.54067
      H1     4.42024    0.32200   11.10507
       H    10.20866    4.19126    7.10466
       O    10.40452    4.27942    8.05378
      H1     9.71927    3.90101    8.65500
       H     0.31740    1.85539    8.71971
       O     1.11617    2.24073    9.11610
      H1     1.74317    1.54201    9.21918
       H    10.24594    3.14834   12.57060
       O     9.42627    3.56132   12.86451
      H1     8.88826    2.81216   12.81322
       H     4.45623    5.55559    9.10319
       O     4.31511    6.52978    9.04967
      H1     4.33616    6.91235    9.92163
       H     9.47682   -3.82105    6.72138
       O     9.82775   -3.23316    6.04489
      H1     9.65271   -3.68366    5.18447
       H    10.83190    0.68187    5.50363
       O    10.95127    0.96771    4.55565
      H1    10.21835    0.58461    4.09427
       H    11.56039   -2.97498   10.11399
       O    11.98628   -2.16267    9.81822
      H1    12.56308   -2.47307    9.14547
       H     3.12399    1.77814    5.81587
       O     2.84808    1.92901    4.91448
      H1     3.43336    2.63497    4.64288
       H    12.00066    1.92008   11.42212
       O    11.75486    2.55403   12.08401
      H1    12.52890    3.12697   12.08151
       H     4.32241    1.95038   13.62177
       O     3.96010    1.73539   12.72850
      H1     3.03063    1.86042   12.88931
       H    11.47247    2.49744    7.64689
       O    12.13961    1.86489    7.95315
      H1    11.85005    1.52169    8.83096
       H     8.97368    0.39220   14.40760
       O     8.92783   -0.09156   15.23461
      H1     9.45842    0.44270   15.84259
       H     8.09016    3.55020    9.96714
       O     8.60221    2.80697    9.69362
      H1     8.10707    2.11031    9.29436
       H    10.05405   -4.68778    9.49303
       O    10.56420   -4.62481   10.30978
      H1     9.94395   -4.03642   10.82122
       H    10.02546    2.71790    4.75459
       O    10.10031    3.66556    5.04782
      H1     9.32618    4.12522    4.77275
       H     6.96830    5.37076    9.38169
       O     7.04735    4.85970   10.19618
      H1     7.70725    5.41583   10.64764

