150
frame 0 | Written by MDAnalysis XYZWriter (release 2.4.3)
       H     3.38967    3.06920  -10.86298
       O     4.08866    2.40505  -10.64528
      H1     4.47192    2.68956   -9.79761
       H     0.88054    3.53161   -8.30953
       O     1.16548    4.48194   -8.10110
      H1     0.33452    4.98713   -8.09328
       H    -0.15768    1.64395   -7.99827
       O     0.64512    1.91258   -8.53220
      H1     0.41658    1.65346   -9.43955
       H    -0.71859   -2.94236  -10.40197
       O    -0.94560   -3.83311  -10.62219
      H1    -0.15480   -4.06423  -11.04097
       H    -0.88250    5.58300  -14.07976
       O    -1.48374    4.93878  -14.50040
      H1    -1.45386    4.21248  -13.80198
       H    -3.98557    6.26180  -11.99229
       O    -4.30484    5.37189  -11.92743
      H1    -4.69670    5.30107  -12.79342
       H    -1.17677   -3.08993   -6.38251
       O    -0.82400   -2.21631   -6.41203
      H1    -0.96895   -1.83869   -7.25681
       H     0.56350    6.88610  -10.07217
       O     0.23037    6.02115  -10.34305
      H1     1.04888    5.47026  -10.44092
       H     1.04442    2.50522  -14.03565
       O     1.55378    2.41073  -13.21998
      H1     0.92595    2.22378  -12.51132
       H    -1.47730   -3.57461  -12.31044
       O    -1.89280   -3.59736  -13.24370
      H1    -1.72153   -4.49804  -13.55485
       H    -0.13003    3.32513  -17.23450
       O    -0.34124    3.53682  -18.17940
      H1     0.51831    3.72110  -18.65723
       H     5.57529    3.81255   -7.32618
       O     5.22973    3.24736   -8.03109
      H1     4.63183    2.64713   -7.61328
       H    -0.52365    1.21990  -11.80487
       O    -0.20318    1.82137  -11.18988
      H1    -0.82817    2.55786  -11.26747
       H     6.06917    0.23548   -9.69814
       O     6.65131   -0.08158  -10.41274
      H1     6.57180    0.65260  -11.02546
       H     5.61341    1.31828  -13.51737
       O     5.40906    0.75792  -14.28002
      H1     6.11992    0.10636  -14.30709
       H     1.37027    4.49834   -6.38009
       O     1.49186    4.77604   -5.44912
      H1     0.96386    5.60101   -5.38317
       H     3.13009    5.21894  -10.25189
       O     2.61139    4.76522  -10.94538
      H1     2.96645    5.11733  -11.77313
       H    -2.80731   -3.90213   -8.27500
       O    -3.38727   -3.12704   -8.23179
      H1    -4.00877   -3.29965   -7.54286
       H     0.53999   -2.09919  -15.44759
       O     0.78970   -1.83215  -16.38688
      H1    -0.04983   -1.60907  -16.85992
       H    -0.08846    1.09595   -5.05057
       O    -0.16357    0.83648   -5.98455
      H1     0.25696   -0.00889   -5.98515
       H     5.54546    2.47905  -11.63239
       O     6.36628    2.17936  -12.09294
      H1     7.04083    2.87583  -12.09402
       H     2.99768   -3.08918  -11.69399
       O     2.41668   -3.05801  -12.46840
      H1     2.21187   -3.97774  -12.72468
       H     0.21588    6.16383  -12.11206
       O     0.51937    6.29345  -13.06532
      H1     1.28199    5.73382  -13.33670
       H    -0.25649   -0.54779  -13.53851
       O    -0.79367    0.16542  -13.15551
      H1    -1.54814   -0.21917  -12.64445
       H     3.34187    0.56958  -10.88849
       O     2.74373   -0.16973  -11.05170
      H1     2.70527   -0.18760  -12.02980
       H    -1.88546    6.54031  -10.19502
       O    -2.33116    7.34677  -10.50071
      H1    -1.65110    7.84228  -11.04041
       H     3.55210    0.05608  -14.24545
       O     2.62241   -0.02180  -14.00620
      H1     2.27295    0.81172  -13.73089
       H    -2.83569    3.03233  -12.39903
       O    -2.18181    3.35283  -11.82058
      H1    -2.68402    4.19075  -11.53026
       H    -3.25665   -1.56862  -11.61403
       O    -2.90052   -0.67909  -11.54286
      H1    -2.89093   -0.60639  -10.59826
       H     0.09319    2.29115  -15.68774
       O     0.43956    3.21195  -15.61655
      H1    -0.31424    3.85624  -15.69592
       H     2.96280    0.93660   -6.51873
       O     3.38153    1.41116   -7.25167
      H1     2.64338    1.61259   -7.85922
       H     0.98426   -2.55253  -13.19462
       O     0.35833   -2.32219  -13.92392
      H1    -0.41768   -2.81644  -13.71355
       H    -3.08093    7.02587  -16.24202
       O    -3.43230    6.65117  -15.39290
      H1    -2.72481    6.01185  -15.18761
       H    -4.88174    1.26176   -9.07431
       O    -4.26766    1.94839   -8.99628
      H1    -4.23271    2.29555   -9.90467
       H    -2.36581   -0.45368   -7.81621
       O    -2.00073   -0.93848   -8.58408
      H1    -2.53350   -1.74928   -8.60409
       H    -0.29736    0.14981  -16.32721
       O    -0.81092    0.81239  -15.83750
      H1    -0.69371    0.54477  -14.88327
       H    -2.78507    1.19614  -15.81257
       O    -3.58498    1.71519  -15.73605
      H1    -3.93724    1.62313  -16.62082
       H    -5.57764    4.79378  -10.50097
       O    -6.41943    4.39421  -10.22313
      H1    -6.27625    4.00850   -9.32344
       H    -0.12894   -0.83977   -9.55246
       O     0.42487   -1.56375   -9.72718
      H1     1.10034   -1.25965  -10.33526
       H    -6.20404   -0.07762   -8.45962
       O    -5.48091   -0.60148   -8.90620
      H1    -6.00034   -1.15228   -9.49679
       H     3.01110   -0.06245  -15.92668
       O     3.35552    0.12084  -16.79670
      H1     3.59720    1.06790  -16.71024
       H    -2.26310    4.87640   -7.35375
       O    -2.40063    4.49289   -8.26017
      H1    -2.93287    3.70981   -8.04294
       H     1.36891    9.12903  -12.52330
       O     1.87788    8.53952  -13.05012
      H1     1.35632    7.75719  -13.04328
       H    -6.15653    3.16131  -11.38874
       O    -5.74443    2.47072  -11.98432
      H1    -6.16481    2.48542  -12.88080
       H     4.37484    4.80514   -8.44767
       O     3.76684    5.56658   -8.56593
      H1     2.92157    5.16309   -8.32981
       H     2.88206    4.14268  -13.39892
       O     2.99336    5.07373  -13.42017
      H1     3.84392    5.28270  -13.81960
       H    -0.23140    3.68526   -4.93331
       O    -1.12073    3.74995   -4.53453
      H1    -0.88441    4.21190   -3.67906
       H     4.39083   -2.86918   -9.26407
       O     3.84264   -2.62892  -10.00447
      H1     3.36891   -1.80334   -9.75736
       H    -1.91327    0.70915   -6.30451
       O    -2.85200    0.59823   -6.58152
      H1    -3.21355    1.17231   -7.28141
       H     2.46137   -3.97070   -9.50594
       O     2.10575   -4.78821   -9.08815
      H1     1.16660   -4.83504   -9.01993

