150
frame 8 | Written by MDAnalysis XYZWriter (release 2.4.3)
       H    -0.96981   16.00451   -2.26605
       O    -1.12355   16.46165   -1.44649
      H1    -1.13027   17.38628   -1.62070
       H     2.28231   14.88721   -1.85024
       O     1.64005   14.18550   -2.03150
      H1     0.74265   14.48950   -1.82225
       H    -2.14153   13.02905    3.33018
       O    -2.15110   13.97160    3.12011
      H1    -3.04289   14.15477    2.76901
       H     3.09178   18.30988   -3.51510
       O     2.85513   18.31505   -2.58417
      H1     1.96710   18.64599   -2.53073
       H     3.27662   19.37065   -0.01461
       O     2.88335   19.04767    0.80622
      H1     2.22684   18.31678    0.54764
       H    -5.03519   18.04090    4.55577
       O    -5.84475   17.51638    4.64796
      H1    -5.84001   17.00304    3.84316
       H    -7.13703   13.27912    7.44397
       O    -6.85441   14.14094    7.80548
      H1    -7.59710   14.49536    8.35406
       H    -2.69366   19.83321    3.31586
       O    -2.52707   18.96641    2.96414
      H1    -3.33769   18.72914    2.49067
       H    -8.39599   17.46988    4.94433
       O    -8.46160   17.61049    5.90235
      H1    -7.65534   17.99100    6.02788
       H    -4.13359   15.94573    8.06503
       O    -3.60167   15.90203    8.86227
      H1    -3.01965   15.09968    8.62481
       H     3.47624   18.17245    4.40443
       O     2.89980   18.44041    5.08751
      H1     3.25322   19.28262    5.37457
       H     4.45045   17.64509   12.05776
       O     3.80082   18.35496   11.81851
      H1     3.32985   17.88200   11.13498
       H     2.09250   16.11971    6.89505
       O     2.66945   16.83930    7.22889
      H1     2.59788   17.66547    6.66174
       H     3.38645   16.73072   -2.14476
       O     3.68264   15.86514   -2.02954
      H1     4.08071   15.81186   -1.15575
       H    -0.78793   17.87005    4.28634
       O    -0.09950   17.35587    4.71201
      H1     0.64539   17.94218    4.60447
       H     4.57707   14.55034    2.96152
       O     4.86449   15.09427    2.17112
      H1     4.55564   16.04063    2.24286
       H     3.74602   12.07974    6.95433
       O     2.84761   12.16990    7.36128
      H1     3.00308   11.93558    8.28378
       H    -0.63671   10.76504    9.13405
       O    -0.45627   11.74079    9.17133
      H1    -0.97087   12.10503    8.46353
       H    -2.89069   16.54211   -4.22361
       O    -3.82074   16.85554   -4.07436
      H1    -3.90791   16.99075   -3.11416
       H     1.14437   14.30228    6.13476
       O     1.31567   14.59471    7.09463
      H1     1.95867   13.86211    7.27843
       H    -0.45831   14.89624    2.66761
       O     0.36559   15.39015    2.79931
      H1     0.18182   16.18462    3.38955
       H     3.34720   14.14170    1.28717
       O     2.86645   13.44515    0.82458
      H1     2.53410   13.98746    0.06264
       H    -5.55065   19.51215    6.70674
       O    -6.41865   19.23029    7.10694
      H1    -6.94227   20.01525    7.20221
       H    -5.17015   13.25490    2.40565
       O    -4.76575   14.07325    2.13890
      H1    -5.39103   14.80171    2.24812
       H    -5.24973   11.51885    3.80865
       O    -5.78376   11.35700    3.01835
      H1    -6.68190   11.74393    3.07819
       H     0.88640   16.29970    1.12750
       O     1.02610   16.80781    0.29169
      H1     0.22153   16.61718   -0.21061
       H    -2.00130   16.44245   11.85022
       O    -1.73921   15.84725   11.15017
      H1    -2.50453   15.98106   10.54312
       H    -1.88168   14.31518    6.98018
       O    -1.56603   14.28878    7.88278
      H1    -0.65439   14.59638    7.93673
       H    -4.62422   18.15471    0.23705
       O    -4.76429   18.14657    1.17227
      H1    -4.97054   19.05963    1.46794
       H     0.05364   15.42133   11.07272
       O     0.86589   15.03720   11.51046
      H1     0.67045   14.07380   11.68131
       H     6.05969   16.07712    3.52122
       O     6.44065   16.27704    4.37441
      H1     5.87967   15.90750    5.10053
       H     2.20302   15.73658   10.34599
       O     2.90818   16.35152   10.12252
      H1     2.78883   16.50234    9.20475
       H    -1.46212   11.07841    4.86246
       O    -1.33546   11.67513    4.15499
      H1    -0.97944   11.13887    3.40834
       H    -0.60260   18.74261    0.71777
       O    -1.46608   18.85880    0.29430
      H1    -2.00457   19.23620    1.04125
       H     1.87496   12.09296    3.55761
       O     2.33162   11.50989    2.95633
      H1     2.33207   11.94758    2.10277
       H     6.14271   19.58891    2.08565
       O     6.53225   18.68276    2.08271
      H1     7.37116   18.75968    2.62344
       H    -5.11160   13.13942   -1.38033
       O    -5.62579   13.06520   -0.51029
      H1    -5.02440   13.35175    0.18682
       H    -5.22193   15.82747   10.24828
       O    -5.57565   16.31448   10.96078
      H1    -5.71514   17.18875   10.61886
       H    -7.22547   15.93309    1.81220
       O    -6.36353   16.13375    2.24163
      H1    -5.91185   16.85378    1.77367
       H     5.24279   18.10644    2.83944
       O     4.33653   17.67814    2.74296
      H1     4.01360   18.17904    1.99299
       H    -3.25475   16.32739   -1.36145
       O    -3.99910   16.92514   -1.35376
      H1    -4.78064   16.31661   -1.37212
       H     5.22546   14.42998    6.62812
       O     5.33290   15.36126    6.77509
      H1     4.44678   15.75994    6.89134
       H     0.42390   12.42094    4.45030
       O     1.01542   13.21136    4.53148
      H1     0.63961   13.87301    3.91792
       H    -0.89864   17.46771    6.59937
       O    -1.49475   17.72916    7.37333
      H1    -2.02288   16.93519    7.59173
       H    -5.52665   19.58392   10.07535
       O    -6.20188   18.90401   10.01689
      H1    -6.30665   18.81125    9.05314
       H     5.34254   14.66031    0.67801
       O     5.46870   14.45916   -0.25790
      H1     6.39392   14.16002   -0.23155
       H    -5.59449   16.43386    5.99258
       O    -5.17087   15.83702    6.65978
      H1    -5.87542   15.16470    6.91654
       H    -3.85103   14.95615    5.58283
       O    -2.98580   14.56568    5.61194
      H1    -2.69637   14.45900    4.74235
       H    -4.00316   12.50456    5.76066
       O    -4.58102   11.84755    5.36428
      H1    -5.13279   11.51781    6.08691
       H     5.29639   12.74945    3.43913
       O     4.58262   13.07719    4.10731
      H1     3.82939   12.46347    3.94574

