150
frame 0 | Written by MDAnalysis XYZWriter (release 2.4.3)
       H   -18.82740  -16.41088    7.08837
       O   -19.80545  -16.18894    7.04443
      H1   -19.76565  -15.35379    7.51022
       H   -18.46912   -7.61891   -3.33213
       O   -17.98784   -6.94984   -2.75781
      H1   -17.26581   -7.48230   -2.42258
       H   -14.57173   -4.06580   -2.83909
       O   -15.21549   -3.36769   -2.54173
      H1   -15.51393   -3.72821   -1.70672
       H   -17.04992   -1.27133    5.45883
       O   -17.21958   -2.21017    5.49047
      H1   -17.29407   -2.26359    6.46011
       H   -17.82648   -6.33769   -0.50741
       O   -17.76725   -5.64787    0.14669
      H1   -17.35155   -6.13966    0.90143
       H   -19.66657  -12.91352   -1.03753
       O   -18.91574  -13.44661   -1.26770
      H1   -19.17490  -13.76810   -2.18088
       H   -13.49489   -4.55323    0.09480
       O   -12.70102   -5.10970   -0.12558
      H1   -12.40398   -5.38878    0.71054
       H   -13.32990   -7.51510    4.50221
       O   -13.34303   -6.77398    3.87617
      H1   -13.88210   -6.11123    4.33770
       H   -18.31814   -2.50247    4.06464
       O   -18.69789   -2.95930    3.31500
      H1   -19.29821   -2.36831    2.88646
       H   -16.20341  -11.45389   -0.74805
       O   -16.48243  -12.29991   -0.42083
      H1   -17.25901  -12.46732   -0.99608
       H   -18.15689  -13.93080    6.23999
       O   -18.85961  -13.30745    5.98143
      H1   -18.57123  -12.53246    6.48254
       H   -13.07155  -10.42508   -1.08775
       O   -13.32684  -10.72887   -0.20441
      H1   -13.23429  -11.68771   -0.26928
       H   -19.35621   -9.93938    6.15535
       O   -18.59057   -9.86725    6.73171
      H1   -17.87986   -9.50277    6.20161
       H   -19.30478   -4.12041    4.58589
       O   -19.20044   -4.67434    5.41312
      H1   -19.29237   -4.01080    6.14392
       H   -18.14711   -8.51616    3.58885
       O   -18.25928   -7.91025    4.36923
      H1   -19.19564   -7.64516    4.41209
       H   -19.48909   -6.99468   12.02370
       O   -18.56183   -7.21818   12.19901
      H1   -18.64439   -7.97353   12.84250
       H   -17.54784  -11.03811    9.84027
       O   -17.34476  -11.45250    9.00643
      H1   -17.56116  -10.79436    8.36308
       H   -16.31527   -7.37801   10.65673
       O   -15.63091   -7.85899   10.06902
      H1   -14.96632   -7.19365   10.06813
       H   -17.26023   -7.00587    3.15934
       O   -16.77184   -6.64090    2.42739
      H1   -15.90589   -7.02222    2.61137
       H   -17.64385    0.09011    2.28969
       O   -16.81738    0.50238    2.09943
      H1   -16.23075   -0.26809    1.96737
       H   -18.63628  -10.37214   11.73648
       O   -17.78431  -10.85577   11.74382
      H1   -18.09648  -11.62771   12.21267
       H   -16.12795   -4.85541    0.22245
       O   -15.42126   -4.22087    0.07573
      H1   -15.73033   -3.45043    0.53737
       H   -15.42430  -11.71173    9.15635
       O   -14.49785  -11.85520    8.83153
      H1   -14.44150  -12.76845    9.17218
       H   -13.76311  -14.09179    0.04944
       O   -14.06303  -13.33853   -0.47546
      H1   -14.95513  -12.99698   -0.23840
       H   -15.75562   -5.17525    3.74497
       O   -15.16068   -4.79683    4.43364
      H1   -15.71161   -4.90529    5.18481
       H   -14.34277   -1.34080    1.15880
       O   -15.16342   -1.60618    1.65173
      H1   -14.62009   -1.68028    2.47723
       H   -17.52864  -10.30022    2.11918
       O   -16.79566  -10.37224    1.52235
      H1   -16.77169  -11.32934    1.29515
       H   -18.46937  -15.38507    9.60157
       O   -18.42704  -14.61848    9.04416
      H1   -19.25810  -14.06051    9.24761
       H   -13.60288  -10.05787    1.29477
       O   -14.03189   -9.69405    2.08291
      H1   -15.02804   -9.67205    1.81814
       H   -13.76282   -6.88855    6.79859
       O   -13.54267   -6.53393    7.68936
      H1   -13.29096   -5.62176    7.46952
       H   -19.14621   -4.51931    2.23988
       O   -19.53871   -5.37141    1.96836
      H1   -18.89636   -5.73694    1.27593
       H   -14.65373  -14.72789    3.50702
       O   -15.25341  -15.19007    4.14443
      H1   -15.56250  -14.45862    4.80813
       H   -15.51938  -14.12607    6.91157
       O   -15.88765  -13.53596    6.24347
      H1   -15.62497  -12.63762    6.50273
       H   -12.34759   -3.37417    6.60704
       O   -12.76966   -4.17214    6.29953
      H1   -13.50836   -3.90510    5.66226
       H   -18.43941   -8.91588   -0.37680
       O   -17.51803   -9.05433   -0.68829
      H1   -17.13427   -9.60760    0.04037
       H   -10.90628   -7.16661    1.38116
       O   -11.24134   -6.30592    1.69435
      H1   -11.92647   -6.56810    2.30309
       H   -16.27678  -11.32857    4.28925
       O   -15.59008  -10.87613    4.79694
      H1   -14.78008  -11.20427    4.38111
       H   -16.40996   -5.06557   11.58906
       O   -17.19369   -5.27436   11.04108
      H1   -17.61101   -5.93769   11.62003
       H   -15.87319   -3.35284    8.01308
       O   -15.92031   -2.38238    8.16977
      H1   -15.45585   -2.00786    7.43179
       H   -17.62820  -13.39086    3.58911
       O   -17.13606  -12.62261    3.34111
      H1   -16.38387  -13.04317    2.95777
       H   -13.77107   -8.99457    6.53972
       O   -14.19132   -8.52423    5.82331
      H1   -14.79541   -9.14655    5.39669
       H   -12.22660  -12.04223    3.95830
       O   -13.09609  -12.09743    3.54946
      H1   -13.27804  -11.45522    2.85186
       H   -14.12422   -2.09208    4.88570
       O   -13.85515   -2.37549    4.04501
      H1   -14.50187   -3.14862    3.96739
       H   -20.13411   -3.88940    7.76593
       O   -19.39940   -3.26458    7.89724
      H1   -18.74415   -3.73224    8.34873
       H   -11.90388  -10.78742    8.50227
       O   -12.12340   -9.82524    8.44135
      H1   -12.94356   -9.87845    8.86588
       H   -17.61870   -6.06333    9.25266
       O   -17.45023   -6.63624    8.54417
      H1   -16.69868   -7.20060    8.84538
       H   -14.72536   -0.54289    6.14160
       O   -14.20533   -1.28538    6.43529
      H1   -13.52555   -0.85171    6.94590
       H   -16.93379   -5.74431    7.23036
       O   -16.76494   -4.92338    6.73875
      H1   -17.55042   -4.76764    6.21914
       H   -18.13365  -16.17642    3.02335
       O   -18.73690  -15.39290    3.02020
      H1   -19.36919  -15.69051    3.67756
       H   -18.75078   -7.69474    9.14289
       O   -19.41574   -8.37684    9.24690
      H1   -19.43631   -8.64173    8.33712

