150
frame 0 | Written by MDAnalysis XYZWriter (release 2.4.3)
       H    -6.73879  -14.09605    7.93444
       O    -5.89348  -14.11921    7.43030
      H1    -5.31656  -13.56098    7.98273
       H    -9.06562  -14.76662    8.63518
       O    -8.42305  -14.10284    8.36811
      H1    -8.82396  -14.02000    7.49796
       H    -5.61197  -13.68909    0.82145
       O    -5.10053  -12.92127    0.59745
      H1    -4.68594  -12.72377    1.44798
       H    -7.15753  -13.13641    2.20934
       O    -7.77261  -13.83683    2.20255
      H1    -7.39569  -14.45000    2.88015
       H    -9.69594   -9.73678    2.83069
       O    -9.31943  -10.24807    3.60130
      H1    -9.22728   -9.57670    4.29223
       H    -5.08316  -16.02881    9.67426
       O    -6.03941  -15.81003    9.52316
      H1    -5.94400  -15.14998    8.78375
       H   -10.09474  -15.24581    0.20470
       O   -10.05273  -14.74474    1.05373
      H1    -9.06304  -14.58724    1.15216
       H   -14.55987  -16.29716    5.47416
       O   -14.22799  -16.88512    6.17364
      H1   -13.54304  -16.31474    6.50715
       H    -7.72888  -10.78795    2.85846
       O    -6.75654  -10.98304    2.92725
      H1    -6.66747  -11.24833    3.84407
       H   -10.40159  -16.15595    4.08610
       O    -9.77294  -15.41763    3.99912
      H1   -10.04197  -14.97166    3.19872
       H   -11.66763  -15.24118    5.73224
       O   -12.29005  -15.02182    6.44338
      H1   -11.83120  -14.22607    6.85603
       H    -8.52325  -11.70047   -2.81101
       O    -7.72796  -12.08563   -2.43922
      H1    -7.56650  -11.36286   -1.80252
       H   -11.14443  -13.68551   -2.73861
       O   -11.38967  -13.80439   -3.66772
      H1   -10.75253  -14.55751   -3.86885
       H    -6.81179  -13.64683   -1.74200
       O    -6.82235  -14.62833   -1.79969
      H1    -6.34175  -14.79204   -0.92821
       H    -4.90663  -15.98621    0.48833
       O    -5.78490  -15.57956    0.50638
      H1    -6.39676  -16.20313    0.87912
       H   -15.28475  -18.58270    3.82873
       O   -14.63210  -19.23981    4.17034
      H1   -14.66665  -19.06805    5.14714
       H   -13.07155  -10.42508   -1.08775
       O   -13.32684  -10.72887   -0.20441
      H1   -13.23429  -11.68771   -0.26928
       H   -11.91227  -17.51139    3.19384
       O   -11.75214  -17.41584    4.17379
      H1   -12.55148  -17.84956    4.47848
       H   -10.28815  -16.57688    9.41804
       O   -10.38987  -16.15010    8.52238
      H1   -11.26014  -15.79483    8.63974
       H    -8.41040  -15.22208   -3.09106
       O    -9.05572  -15.43574   -3.80967
      H1    -8.44568  -15.44769   -4.58276
       H    -4.18933  -16.50004    6.54752
       O    -4.66840  -17.28892    6.14661
      H1    -5.60231  -17.14296    6.32639
       H    -7.75797  -16.33430    6.71913
       O    -7.89279  -16.87568    5.95531
      H1    -8.64548  -17.48921    6.15898
       H   -13.76311  -14.09179    0.04944
       O   -14.06303  -13.33853   -0.47546
      H1   -14.95513  -12.99698   -0.23840
       H    -9.08098  -18.86365   -0.15288
       O    -8.95717  -19.87535   -0.11586
      H1    -7.97634  -19.93566   -0.40834
       H   -10.79394  -10.83915    4.62613
       O   -10.98955  -11.53448    5.27148
      H1   -10.16233  -12.04598    5.30587
       H    -7.04763  -15.62044    4.75215
       O    -6.67574  -15.48308    3.90192
      H1    -6.68087  -16.39560    3.50404
       H   -13.60288  -10.05787    1.29477
       O   -14.03189   -9.69405    2.08291
      H1   -15.02804   -9.67205    1.81814
       H   -10.55171  -13.73650   -0.09883
       O   -10.51322  -13.33941   -0.98749
      H1    -9.58105  -13.18587   -1.12998
       H    -6.11148  -18.17907    2.32305
       O    -6.97288  -17.76153    2.37213
      H1    -7.45043  -18.30203    3.03077
       H   -14.65373  -14.72789    3.50702
       O   -15.25341  -15.19007    4.14443
      H1   -15.56250  -14.45862    4.80813
       H   -15.00910  -14.71264   -3.37590
       O   -14.75866  -15.26752   -2.57635
      H1   -14.45868  -14.55608   -1.99443
       H   -10.16246  -17.35338    7.44631
       O   -10.12141  -18.18483    6.88525
      H1   -10.92139  -18.06348    6.37691
       H   -11.34935  -12.25429    6.97959
       O   -11.80909  -12.64834    7.73192
      H1   -12.64397  -12.16525    7.66195
       H    -8.18195  -12.77709    5.30514
       O    -8.87928  -13.29860    5.69869
      H1    -9.05190  -13.99299    5.07391
       H   -15.51938  -14.12607    6.91157
       O   -15.88765  -13.53596    6.24347
      H1   -15.62497  -12.63762    6.50273
       H   -11.87982   -8.17758   -0.46317
       O   -11.06514   -8.43836   -0.00106
      H1   -10.77585   -9.16314   -0.58478
       H   -15.22793  -17.53794    0.12994
       O   -14.33186  -17.95260    0.01776
      H1   -14.35568  -18.05779   -0.88145
       H    -7.44201   -8.92484   -0.84043
       O    -7.52398   -9.87946   -0.79817
      H1    -6.97098  -10.14944   -0.08046
       H   -16.27678  -11.32857    4.28925
       O   -15.59008  -10.87613    4.79694
      H1   -14.78008  -11.20427    4.38111
       H   -12.62085  -17.62087    0.65711
       O   -11.89791  -17.33646    1.23165
      H1   -11.32207  -18.18874    1.27073
       H    -9.45059  -16.44019    1.15490
       O    -8.97355  -17.14440    0.63344
      H1    -8.17528  -17.31159    1.18485
       H    -2.51790  -17.19504    0.78278
       O    -3.22021  -16.54158    1.00488
      H1    -3.54599  -16.94797    1.83576
       H   -17.62820  -13.39086    3.58911
       O   -17.13606  -12.62261    3.34111
      H1   -16.38387  -13.04317    2.95777
       H    -5.88471  -11.36857    6.14444
       O    -6.13151  -12.10283    5.53936
      H1    -6.13850  -12.71414    6.33022
       H   -12.22660  -12.04223    3.95830
       O   -13.09609  -12.09743    3.54946
      H1   -13.27804  -11.45522    2.85186
       H    -4.18748  -17.71624    4.46454
       O    -4.33395  -17.22795    3.60678
      H1    -4.95362  -16.51014    3.94211
       H    -3.09297  -11.89030    4.21531
       O    -3.57119  -12.52227    3.62965
      H1    -4.38346  -12.77220    4.10566
       H   -11.90388  -10.78742    8.50227
       O   -12.12340   -9.82524    8.44135
      H1   -12.94356   -9.87845    8.86588
       H   -16.16815  -16.65790    3.76181
       O   -16.72546  -17.40535    3.43727
      H1   -17.04293  -17.60802    4.31928
       H   -12.76482  -15.37395    1.91444
       O   -13.42089  -14.61760    1.99273
      H1   -12.88827  -13.89412    2.33153

