150
frame 3 | Written by MDAnalysis XYZWriter (release 2.4.3)
       H    -2.13211   -8.96209    0.48709
       O    -1.65261   -9.76492    0.80985
      H1    -1.03907   -9.43636    1.43956
       H     3.76033   -8.47589    2.98115
       O     4.52160   -8.05133    2.52743
      H1     4.03788   -7.36574    2.07329
       H     1.41568   -7.66125    2.26594
       O     1.42744   -7.70425    1.33491
      H1     2.10311   -7.13410    0.96990
       H    10.03994  -13.32133   -0.76075
       O     9.16086  -13.27192   -0.33216
      H1     8.72197  -12.47718   -0.63012
       H    -0.05420   -7.88322   -2.48513
       O     0.68547   -7.91270   -3.10970
      H1     0.62051   -8.80304   -3.47909
       H     1.28145   -5.73187   -3.27683
       O     0.78652   -4.94506   -3.25755
      H1     1.29828   -4.18206   -3.65151
       H    -0.65727  -16.33865    1.17911
       O     0.30341  -16.49043    0.95150
      H1     0.74753  -15.89577    1.54568
       H     0.22552  -12.43202    5.72787
       O     0.32713  -11.58135    6.18603
      H1     1.26323  -11.37976    6.05593
       H     5.29563   -6.48118    3.73493
       O     5.67990   -6.10495    4.48829
      H1     5.25410   -5.20424    4.53619
       H     3.48965  -11.54897   -4.73222
       O     2.54471  -11.60968   -4.65121
      H1     2.44703  -12.54182   -4.43682
       H     2.89547  -14.72757    1.45981
       O     2.63391  -15.20677    2.29597
      H1     3.38473  -15.88484    2.21536
       H     1.46063   -5.77452    3.57245
       O     1.83543   -6.63927    3.86154
      H1     1.43733   -6.69469    4.72947
       H     6.49467  -10.48795   -0.98470
       O     7.45205  -10.65665   -1.11455
      H1     7.48536  -10.52731   -2.04737
       H     6.39235  -13.92417   -4.03627
       O     5.51533  -13.53381   -4.30337
      H1     4.88672  -14.24660   -4.20959
       H     5.66621   -9.47006    2.47266
       O     5.80619  -10.41483    2.38948
      H1     6.72398  -10.58542    2.16584
       H     2.53123  -10.80445    2.00334
       O     2.41852  -11.20135    1.12963
      H1     2.37604  -10.50863    0.40026
       H     0.70212  -14.18187   -4.02863
       O     1.38747  -13.98889   -3.37878
      H1     0.92963  -13.91966   -2.54696
       H     8.00235  -13.30242    2.71096
       O     7.18551  -13.33820    3.23158
      H1     6.65250  -13.89728    2.58459
       H     3.42417  -15.04305   -0.78668
       O     2.91363  -14.30175   -0.39804
      H1     3.45368  -13.52638   -0.67781
       H     8.02061   -9.06828    1.33505
       O     8.32486  -10.00665    1.23216
      H1     8.15533  -10.26058    0.30055
       H    -0.02726  -14.02240    4.01288
       O     0.30826  -14.01467    4.91271
      H1     1.27168  -13.97127    4.71035
       H     6.92370  -15.28927    1.05902
       O     6.08111  -14.97418    1.22585
      H1     5.66490  -14.76097    0.38914
       H     5.15632   -9.15515    6.36731
       O     5.75401   -9.81710    6.71440
      H1     6.67437   -9.54737    6.49855
       H     5.30876   -9.79696   -4.22915
       O     5.18614  -10.54307   -4.85175
      H1     5.49380  -11.39979   -4.40199
       H     4.03260   -7.22493   -4.62310
       O     3.20492   -6.69323   -4.82096
      H1     2.59352   -7.28991   -5.30276
       H    -0.89993   -6.55367   -0.17265
       O    -0.59498   -7.36742   -0.52374
      H1     0.15553   -7.52914    0.03755
       H     5.16801  -11.61505    5.40219
       O     4.59194  -11.87026    4.67193
      H1     5.13845  -11.82552    3.83295
       H     2.70577   -8.87789   -6.65149
       O     1.90253   -8.75863   -6.14297
      H1     1.95977   -9.40158   -5.46508
       H     2.43239   -8.95649   -1.65946
       O     2.51526   -9.57155   -0.91341
      H1     3.45976   -9.54737   -0.66270
       H    -1.01212  -15.12257   -1.13560
       O    -1.92036  -15.46321   -1.18690
      H1    -1.80138  -16.11698   -1.90016
       H    -1.80841  -10.74225    3.11566
       O    -2.47769  -11.39147    3.35692
      H1    -3.21900  -11.24940    2.77123
       H     4.50959   -7.05655    5.47907
       O     3.95631   -7.75632    5.90554
      H1     3.30075   -7.86847    5.23617
       H     4.01972  -17.16471   -1.10682
       O     4.37095  -16.47691   -1.62449
      H1     5.08269  -16.77182   -2.11995
       H    -0.43007  -10.17928    4.99745
       O    -0.19296   -9.70710    4.16824
      H1    -0.65612   -8.86531    4.37649
       H     0.14310  -12.94491   -1.00724
       O     0.33205  -13.88195   -0.94154
      H1     1.28664  -13.98068   -0.63407
       H     3.13081  -10.93712    7.20989
       O     2.77533  -10.28661    6.60567
      H1     3.25081   -9.47084    6.73865
       H     1.56666   -9.71481    3.94878
       O     2.49675   -9.51500    3.62664
      H1     3.10631  -10.00161    4.17323
       H     3.62632  -15.99307   -3.26715
       O     3.34780  -15.55373   -4.03303
      H1     2.53413  -15.12599   -3.80712
       H     3.93378   -6.05558   -0.27567
       O     3.44487   -5.95726    0.54454
      H1     3.22448   -5.03382    0.55660
       H     1.38857  -12.74062    1.60106
       O     0.56803  -13.20399    1.92797
      H1     0.17202  -13.61191    1.20762
       H     3.64145  -13.32422    4.93914
       O     3.01665  -14.07018    4.89321
      H1     2.79650  -14.16996    3.95215
       H     2.08999  -17.18030    0.22874
       O     2.87398  -17.72152    0.19039
      H1     3.48796  -17.50929    0.99393
       H    -2.30736  -13.09424    3.27884
       O    -2.27951  -14.05199    3.55473
      H1    -2.45654  -13.99255    4.52007
       H     3.35785  -12.45881   -2.08671
       O     4.27918  -12.48271   -1.80861
      H1     4.78180  -12.75380   -2.57850
       H     6.21390   -7.73574   -4.11130
       O     5.39531   -8.11206   -3.87219
      H1     5.25122   -7.63435   -3.03739
       H     4.93472   -5.82507   -2.20861
       O     4.96653   -6.72458   -1.74325
      H1     5.79930   -6.75667   -1.25958
       H    -0.97983  -10.84628   -3.28973
       O    -0.54590  -10.34768   -4.02243
      H1    -1.13599   -9.70183   -4.37767
       H    -2.97385   -9.78412   -1.94743
       O    -2.70169  -10.69137   -2.28243
      H1    -1.91942  -10.87701   -1.72252
       H    -0.62688  -11.00488   -0.31084
       O    -0.38357  -11.19040   -1.24733
      H1     0.49409  -10.87099   -1.44802
       H     5.26293  -10.43112    0.45449
       O     4.93255  -10.21147   -0.43455
      H1     4.70337  -11.08539   -0.80388

