150
frame 1 | Written by MDAnalysis XYZWriter (release 2.4.3)
       H    -7.43088    8.68646  -18.14557
       O    -8.43316    8.61620  -18.20129
      H1    -8.84091    8.90879  -17.44398
       H    -6.92956    5.66922  -17.85782
       O    -6.22968    5.56755  -17.21147
      H1    -5.35238    5.30413  -17.65901
       H   -11.17708   11.24616  -14.31750
       O   -12.02161   11.56996  -14.66063
      H1   -12.38280   12.11080  -13.93580
       H   -11.64600    8.37285  -18.90427
       O   -10.87852    8.26268  -19.47184
      H1   -10.08370    8.48085  -18.96988
       H   -14.78073   -0.13439  -12.17384
       O   -14.20470    0.51320  -12.57651
      H1   -14.36040    0.28253  -13.51905
       H    -7.62319   -1.66047  -16.76195
       O    -8.43438   -2.07749  -17.20397
      H1    -9.21102   -1.50116  -17.07663
       H   -12.33344    1.32767  -15.06636
       O   -13.31001    1.52316  -15.30746
      H1   -13.37450    2.35233  -14.81784
       H   -17.92987    8.00925  -16.76497
       O   -17.93932    7.07595  -16.92228
      H1   -17.77382    6.84278  -17.87260
       H   -15.21821   -0.30651  -17.37776
       O   -14.30341   -0.31612  -17.17509
      H1   -14.22806    0.40853  -16.56761
       H   -11.07873    5.82194  -19.68914
       O   -11.56629    5.00046  -19.77527
      H1   -11.76256    4.79371  -18.83503
       H    -8.19682   11.55733  -17.08695
       O    -8.91108   11.77903  -16.51861
      H1    -9.70885   11.46186  -16.92972
       H   -13.74886    7.59664  -17.32491
       O   -12.98589    7.99754  -17.72501
      H1   -13.22351    8.95236  -17.72902
       H    -5.83229    7.28556  -17.21175
       O    -5.77125    8.23996  -17.40152
      H1    -5.50319    8.65791  -16.56879
       H   -14.01340    8.57174  -12.01169
       O   -13.69503    7.66861  -12.23553
      H1   -12.79185    7.84047  -12.54742
       H    -6.36728    4.24056  -14.42823
       O    -6.13155    5.14492  -14.17036
      H1    -5.19463    5.24259  -14.35097
       H   -10.85033    6.46985  -12.98394
       O   -11.01566    6.34449  -12.05557
      H1   -10.25644    6.28055  -11.48411
       H   -14.23124   10.68342  -19.68141
       O   -15.09289   10.42478  -19.29748
      H1   -15.04114    9.40984  -19.44252
       H   -16.97344   10.78656  -18.79189
       O   -17.67617   11.21249  -18.35746
      H1   -17.56553   10.87049  -17.43963
       H   -16.79978    4.99855  -14.05916
       O   -15.94829    5.42647  -13.87048
      H1   -16.00555    6.26314  -14.35494
       H    -8.09992   -2.04536  -18.97765
       O    -7.82002   -2.01162  -19.90424
      H1    -7.62082   -2.91702  -20.11391
       H    -5.66389    2.15351  -18.77326
       O    -4.78380    2.29004  -18.46351
      H1    -4.81770    2.03177  -17.54025
       H   -12.55404    1.05137  -19.86103
       O   -13.32607    0.48657  -19.98413
      H1   -13.48860    0.17815  -19.07504
       H    -7.48334    6.76983  -14.23739
       O    -8.23148    7.39025  -14.08467
      H1    -8.43038    7.29174  -13.14407
       H   -12.51486    3.80941  -11.04089
       O   -11.80129    3.63675  -11.69964
      H1   -11.33422    4.49637  -11.86679
       H    -5.39044    8.86316  -14.53611
       O    -6.11724    9.48835  -14.60740
      H1    -6.89318    8.91002  -14.48176
       H   -11.77401   11.22043  -16.42971
       O   -11.44155   10.69738  -17.17151
      H1   -11.26396    9.80906  -16.84459
       H    -3.83874    5.33001  -18.91675
       O    -3.73820    4.78396  -18.12073
      H1    -3.95570    3.82251  -18.27484
       H   -15.14037    2.94548  -19.66092
       O   -15.64055    2.18812  -19.39066
      H1   -15.26725    1.48437  -19.88989
       H   -13.88761   -2.52301  -17.83776
       O   -13.69141   -3.05863  -18.56527
      H1   -14.26551   -2.98536  -19.27207
       H   -13.59919   12.98057  -18.71372
       O   -13.22096   13.49539  -17.98989
      H1   -13.32182   14.40443  -18.27413
       H   -18.55442    9.79679  -15.68850
       O   -17.67150    9.60462  -16.07431
      H1   -17.15308    9.22723  -15.33586
       H    -9.71955    3.82568  -16.38817
       O    -9.43552    2.98773  -15.99107
      H1    -9.41145    3.16891  -15.02179
       H    -5.33895   -1.29089  -19.62025
       O    -5.29516   -0.53001  -19.02930
      H1    -4.54227   -0.00947  -19.36408
       H   -12.01865   10.89857  -18.84319
       O   -12.52413   11.08757  -19.65689
      H1   -12.15578   11.95223  -19.98654
       H   -16.56680    0.94164  -18.40473
       O   -16.82088    0.08787  -17.99185
      H1   -16.89251   -0.59324  -18.70472
       H   -10.74189    1.13373  -19.60943
       O   -11.16643    1.85599  -19.11635
      H1   -10.47732    2.53125  -19.00107
       H    -5.72127   -0.43891  -17.27225
       O    -6.00482   -0.86175  -16.50611
      H1    -6.10278   -0.15211  -15.88346
       H    -8.54629    6.58075  -18.20609
       O    -8.68640    5.65720  -18.25871
      H1    -8.72758    5.53489  -19.19613
       H   -13.91427    4.69834  -13.74822
       O   -13.32008    3.94894  -13.99103
      H1   -12.75209    3.68131  -13.23103
       H   -15.14602   -0.96848  -15.66373
       O   -15.18438   -1.17495  -14.72564
      H1   -15.40152   -2.11049  -14.73469
       H    -9.23793    2.27517  -12.27337
       O    -9.54134    2.50561  -13.14251
      H1   -10.49955    2.30127  -13.17902
       H    -6.37745    4.06749  -16.07496
       O    -6.60888    3.15482  -15.85495
      H1    -7.57931    2.98864  -16.11462
       H    -9.51923    8.22932  -15.30262
       O   -10.33726    8.49779  -15.67077
      H1   -10.96111    7.86624  -15.34645
       H   -11.50399   -0.90874  -17.69868
       O   -11.14657   -1.26616  -16.91649
      H1   -11.92811   -1.71310  -16.50070
       H   -13.32579    3.82365  -17.47846
       O   -12.38489    3.80303  -17.45965
      H1   -12.10388    2.95790  -17.84074
       H   -10.78407   -0.25851  -15.50515
       O   -10.77778    0.34859  -14.76665
      H1   -10.19262    1.01949  -15.10604
       H   -14.51379   10.89989  -17.12099
       O   -14.70534   10.42450  -16.34178
      H1   -13.89658   10.18945  -15.83492
       H   -11.78521    5.90112  -15.98166
       O   -12.02848    6.27324  -15.13887
      H1   -12.56421    5.55388  -14.80289
       H   -15.85195    6.29266  -16.80993
       O   -14.96276    6.65090  -16.72437
      H1   -14.93054    7.33864  -16.07667
       H   -14.99838    8.33126  -13.46468
       O   -15.51000    8.46578  -14.26248
      H1   -15.73493    9.41526  -14.19076

