150
frame 0 | Written by MDAnalysis XYZWriter (release 2.4.3)
       H   -13.18292    6.90435   14.51152
       O   -12.64234    6.59382   15.21758
      H1   -12.01998    7.35077   15.35960
       H    -4.07670    7.92914   10.38081
       O    -3.27594    8.03196    9.81813
      H1    -3.12199    9.01161    9.81924
       H    -5.44673    4.76368   16.23352
       O    -5.71787    5.12492   17.12295
      H1    -5.08919    5.87839   17.11448
       H    -2.82794    4.86554   18.10749
       O    -2.65998    4.82976   17.13634
      H1    -1.97139    4.11651   17.05285
       H    -9.21557    6.89027   14.24595
       O    -9.27839    7.46160   13.42593
      H1    -8.39264    7.87241   13.44290
       H    -2.94060   10.62744   12.52779
       O    -2.26842    9.86946   12.38968
      H1    -1.46243   10.38308   12.61634
       H    -3.11791    7.41884   18.54011
       O    -2.81237    7.23270   19.42734
      H1    -3.20286    6.33917   19.39099
       H   -13.38093    9.00154   12.63864
       O   -13.48951    9.96892   12.64331
      H1   -12.59424   10.16909   12.96753
       H   -10.26069    4.70283   15.29467
       O   -10.63346    4.73991   14.40590
      H1   -11.25604    5.48434   14.53528
       H    -9.90688    5.04611   18.12713
       O   -10.87646    5.11519   17.90087
      H1   -11.18322    4.32824   18.49287
       H    -9.20207    2.76637   16.85213
       O   -10.03858    2.55691   16.46165
      H1   -10.64305    3.09469   16.96506
       H    -4.31969    2.67400   13.04315
       O    -3.78527    1.86745   13.24332
      H1    -2.86711    2.15624   13.29635
       H    -5.77309    3.90557   10.54706
       O    -5.70599    3.79086    9.58448
      H1    -6.37378    3.22244    9.20199
       H   -10.01533    5.06302    8.25812
       O    -9.83284    5.98131    8.45973
      H1    -9.67572    5.90558    9.40190
       H    -8.46864    3.22528   13.40509
       O    -7.55648    3.28926   13.10760
      H1    -7.35334    2.30140   13.11778
       H    -8.37387   12.14252   12.26978
       O    -9.01930   12.35682   12.95511
      H1    -9.57742   11.48803   12.86640
       H    -5.99855   10.38935   17.38101
       O    -6.20681    9.61500   16.80971
      H1    -6.48976   10.05792   15.95002
       H    -6.24243    7.07972   13.90057
       O    -6.00398    7.64727   14.64340
      H1    -6.69055    7.52130   15.32790
       H   -13.42098    8.89069   17.90425
       O   -12.56984    9.40341   17.96110
      H1   -12.06080    8.73942   18.49627
       H   -10.51422   10.03161   14.01092
       O   -10.82057   10.49699   13.23187
      H1   -10.70458    9.82006   12.56176
       H    -8.87293   10.29126   17.23600
       O    -8.70221    9.42478   17.63047
      H1    -7.70921    9.39326   17.65570
       H    -0.37441    6.31858   15.90275
       O    -0.41506    6.37992   14.90703
      H1    -1.33477    6.43281   14.58814
       H   -11.55131    7.63707   10.75723
       O   -11.44669    8.49601   11.26198
      H1   -11.31427    9.13799   10.52940
       H    -7.08270   12.83062   15.63377
       O    -7.52249   11.95315   15.46043
      H1    -7.92776   12.20328   14.58137
       H    -5.49295   11.17928   19.53007
       O    -5.93966   11.60172   18.85354
      H1    -6.79874   11.74238   19.30891
       H   -10.40044    7.16900   18.79242
       O   -10.27314    7.92888   19.35595
      H1    -9.60892    8.41278   18.76630
       H    -9.26075    6.91255   11.67109
       O    -8.93010    6.43037   10.90635
      H1    -8.91490    5.51164   11.31633
       H    -7.99135   11.34181   10.17258
       O    -7.42065   11.38574   10.97395
      H1    -6.59982   11.88223   10.68639
       H    -8.57854    3.39592   11.48960
       O    -9.06139    3.74188   10.72692
      H1    -9.98833    3.55231   10.96106
       H    -0.96277    6.99026   18.39952
       O    -0.23902    6.80647   17.83232
      H1     0.25803    6.09863   18.24488
       H    -5.08541    9.82696   11.77536
       O    -5.02866    8.88343   11.81342
      H1    -4.13505    8.71412   12.08551
       H    -3.60893   12.45747   11.53490
       O    -4.13620   11.86920   12.08113
      H1    -4.18597   12.21958   13.01425
       H    -4.07164   12.77621   15.86822
       O    -3.76947   12.20244   15.09360
      H1    -3.44124   11.36788   15.40857
       H    -5.41990    4.50669   14.04922
       O    -5.44835    3.88494   14.81344
      H1    -6.30311    3.53540   14.61209
       H    -7.77527    5.75669   19.02795
       O    -8.11650    5.27083   18.24535
      H1    -7.35823    5.02190   17.68523
       H    -3.84531    5.60885   13.15909
       O    -4.26188    5.23862   12.37911
      H1    -5.10379    5.73772   12.36105
       H    -5.00205   14.35128   17.43063
       O    -4.27390   13.66252   17.35319
      H1    -4.63255   12.93149   17.87486
       H    -3.49497    1.89875   15.04065
       O    -3.33827    2.15261   15.94104
      H1    -3.26901    3.10761   15.83983
       H    -0.67187    9.47007   17.91737
       O    -0.52981    9.51518   18.86578
      H1    -0.10396    8.64317   19.00866
       H   -13.21263    5.78584   18.28425
       O   -13.74205    6.28900   17.61922
      H1   -13.32075    6.32946   16.77443
       H    -2.86222    5.70767   15.45916
       O    -3.15746    6.26353   14.69781
      H1    -3.87737    6.81265   15.15951
       H    -7.87569    1.58469   18.11333
       O    -7.67928    2.44971   17.87588
      H1    -8.31458    2.84691   18.49802
       H    -2.27997    5.09027   10.88980
       O    -1.46685    5.34885   10.46069
      H1    -1.43624    6.32860   10.59150
       H    -6.36043    7.67597   11.84686
       O    -6.53244    6.73410   12.03789
      H1    -7.36589    6.59803   11.57244
       H   -12.06187    2.43949   11.71435
       O   -11.39421    3.05798   12.07924
      H1   -11.84232    3.53314   12.79926
       H   -10.02708    8.91915   16.12257
       O   -10.91833    9.09099   15.77032
      H1   -11.54137    9.17630   16.56465
       H    -2.36484    9.54762   14.34783
       O    -2.22803    9.58828   15.32047
      H1    -1.31402    9.73759   15.37554
       H    -6.63809    0.91268   15.51679
       O    -6.95158    0.40726   14.78020
      H1    -6.18498   -0.24355   14.69505
       H    -3.17727    8.55162   16.55331
       O    -3.93621    8.08225   17.00539
      H1    -4.75046    8.69452   16.91007
       H    -8.56392    6.49673   17.02394
       O    -8.69772    7.14701   16.28566
      H1    -8.68586    7.96882   16.78845

