150
frame 0 | Written by MDAnalysis XYZWriter (release 2.4.3)
       H     5.68154    0.37335   -4.56597
       O     4.90537    0.45351   -3.95370
      H1     4.59752   -0.50021   -3.94951
       H     1.27544    4.58986   -8.90703
       O     1.50723    5.45734   -8.60411
      H1     1.02708    6.12569   -9.20613
       H     3.01973    0.77294   -5.67479
       O     3.45655    0.16174   -6.28437
      H1     4.33006   -0.01721   -5.85680
       H     5.72536    3.72257   -4.58888
       O     6.19348    3.83522   -3.77187
      H1     6.01518    4.77642   -3.53138
       H     1.83367    2.11723   -8.88137
       O     1.15500    2.80149   -8.99998
      H1     0.74068    2.56452   -9.82303
       H    -1.53158   -2.81311   -5.58398
       O    -0.78283   -3.40529   -5.34307
      H1    -0.22447   -3.34748   -6.17729
       H     3.17923    2.23102  -10.74309
       O     3.89635    2.17434  -11.33388
      H1     4.02685    3.04616  -11.72917
       H     4.84127    0.55330  -13.39049
       O     3.86086    0.46858  -13.38848
      H1     3.70910    1.03860  -12.61879
       H     0.74710    3.50734  -13.33669
       O     1.31801    3.43560  -12.50564
      H1     1.03654    2.59567  -12.20013
       H     3.77228   -2.79519   -9.09185
       O     3.46114   -3.68019   -8.84253
      H1     2.83696   -3.44038   -8.12791
       H     6.69271    2.09082  -13.85428
       O     6.47838    1.18885  -13.57599
      H1     6.92741    1.16944  -12.73271
       H     7.77060    5.16711   -4.02168
       O     8.65250    5.58078   -3.76603
      H1     9.16091    5.20633   -4.49908
       H    10.14443    4.80782   -6.87382
       O    10.11522    4.45001   -5.94724
      H1    10.23571    3.48403   -6.04884
       H    -1.24846    4.34116  -10.83622
       O    -1.62192    3.45600  -11.10058
      H1    -2.07064    3.19673  -10.25216
       H     7.04509   -0.88219   -5.23925
       O     6.36900   -0.82938   -5.89883
      H1     6.04301   -1.76695   -5.96456
       H    -0.12116    0.49709  -11.77530
       O    -0.01162    1.25968  -11.17149
      H1    -0.75053    1.83749  -11.34212
       H     5.90882    7.61288   -6.60474
       O     5.84025    7.48411   -7.55884
      H1     5.96073    6.49181   -7.59936
       H     4.93029   -3.99231   -5.62961
       O     5.79454   -3.62671   -5.87864
      H1     6.13504   -4.26691   -6.57025
       H     0.63327   -2.17784   -8.49555
       O     0.40036   -1.27406   -8.79871
      H1    -0.19044   -1.42290   -9.55887
       H     2.62295   -3.15504   -5.78620
       O     2.24381   -2.70641   -6.55323
      H1     2.56060   -1.83010   -6.41656
       H     9.71073    1.48964  -10.84387
       O    10.11360    2.26127  -11.25524
      H1    10.30655    2.72199  -10.43254
       H     9.89943   -1.08499  -10.39587
       O     9.38237   -0.30991  -10.08820
      H1     8.54741   -0.22025  -10.54823
       H     2.92341   -2.09034  -12.18819
       O     3.86042   -1.99492  -12.15919
      H1     3.92142   -1.08512  -12.50923
       H     6.16832    1.02883   -1.10657
       O     5.38252    1.32898   -1.47227
      H1     5.50244    1.24757   -2.47094
       H     3.20456   -1.32875   -2.58589
       O     3.49703   -1.80604   -3.40898
      H1     2.88549   -1.35597   -4.03042
       H     6.32115   -2.57841  -10.33230
       O     5.71013   -1.81411  -10.20294
      H1     5.03683   -1.95162  -10.92896
       H    -2.50712   -0.73897   -5.98397
       O    -1.96621   -1.19351   -6.65390
      H1    -1.35343   -0.45791   -6.75982
       H    11.10240    2.18568   -4.99078
       O    10.36594    1.63581   -5.35514
      H1    10.70820    1.15246   -6.07922
       H     6.37508    4.32853   -8.54015
       O     6.76012    4.91122   -7.83233
      H1     6.63395    4.33190   -7.05896
       H     4.04044    1.79812   -7.39228
       O     4.37313    2.63808   -7.69531
      H1     4.25686    3.19465   -6.88962
       H     8.92594    5.50054   -8.30900
       O     9.65291    6.01079   -8.56467
      H1     9.25144    6.26653   -9.46232
       H    -0.13000    1.75039   -8.07529
       O    -0.72535    0.98616   -7.88528
      H1    -0.35611    0.15398   -8.29905
       H     8.16314   -0.76520   -3.32647
       O     8.19705   -1.68570   -3.66109
      H1     9.11020   -1.76522   -3.85096
       H     0.57024    4.42504   -7.07321
       O     0.16091    4.01284   -6.33908
      H1     0.37756    4.48845   -5.51473
       H     0.55946    7.15312   -4.54396
       O     1.04196    6.65389   -5.14944
      H1     0.75109    6.95830   -6.00592
       H     6.33686    1.26913  -10.20537
       O     6.91877    0.71820  -10.79783
      H1     6.58527   -0.11055  -10.42790
       H     1.14013   -1.83037   -4.03234
       O     1.16547   -1.04996   -4.64532
      H1     1.01667   -1.52018   -5.50793
       H     4.71398    5.80370  -12.33590
       O     4.59407    4.86836  -12.15223
      H1     5.08270    4.49953  -12.93147
       H    -1.61024    4.87703   -6.68485
       O    -2.54429    4.94034   -6.84355
      H1    -2.72358    5.87027   -7.07307
       H     0.08261    0.21029   -4.01286
       O    -0.46934    0.85237   -3.53346
      H1    -0.19384    1.64171   -3.96963
       H     5.52439    4.56918   -1.26485
       O     5.26603    3.82036   -0.69228
      H1     5.36945    2.96392   -1.23960
       H     3.25149   -0.93455   -0.05850
       O     3.21266   -0.54690   -0.97709
      H1     4.04268    0.05476   -0.90290
       H     1.67966    5.50815  -11.89676
       O     1.99882    6.38484  -11.60676
      H1     2.97857    6.13126  -11.55546
       H     2.12729   -0.17854   -9.12266
       O     2.87047    0.36900   -8.77941
      H1     2.83035    0.10010   -7.87000
       H     8.59393    2.03763   -3.12181
       O     8.36509    1.22279   -3.57145
      H1     9.00521    1.36737   -4.33414
       H    -2.43716    3.27303   -8.22033
       O    -2.75305    2.43869   -8.57711
      H1    -1.95598    1.80692   -8.47300
       H     5.33306    2.98495   -9.23847
       O     6.01311    3.33960   -9.84455
      H1     5.68858    3.30007  -10.76133
       H     8.93755   -0.47904   -8.31773
       O     8.95307   -0.55573   -7.31669
      H1     8.03530   -0.69927   -7.07849
       H     0.19695    1.55081   -2.12216
       O     0.32578    1.68496   -1.14340
      H1     1.14882    1.31230   -0.91002
       H     3.54866    4.30150   -4.98189
       O     3.90717    4.52223   -5.87239
      H1     3.32274    5.21699   -6.16868

