150
frame 0 | Written by MDAnalysis XYZWriter (release 2.4.3)
       H     6.08049   -1.69219    2.84546
       O     5.96132   -1.98826    1.90086
      H1     6.51162   -1.40610    1.36121
       H     5.43775    3.10416    9.83739
       O     4.99597    3.09760   10.71470
      H1     4.96550    2.18273   10.98221
       H     7.24983    2.97319    5.05484
       O     7.69681    2.09869    5.03795
      H1     7.35932    1.76732    5.85310
       H     2.17314    3.98133   10.05793
       O     2.86217    4.12563    9.44728
      H1     3.58911    3.77023    9.96608
       H     3.23599   -2.90999   12.08350
       O     3.46461   -3.46203   12.86255
      H1     2.60153   -3.87455   13.10779
       H     7.02370   -3.49343   11.47353
       O     6.52151   -3.02505   10.81033
      H1     6.28174   -3.69998   10.16312
       H     5.70517   -6.18402    3.23676
       O     6.17187   -5.39115    3.65547
      H1     5.44239   -4.81607    4.07645
       H     7.31561   -6.51381    5.05579
       O     8.09214   -6.73572    5.57890
      H1     8.02045   -7.68349    5.44399
       H     1.46316   -6.42828    3.11763
       O     1.27667   -7.39852    3.02718
      H1     0.98910   -7.78906    3.83765
       H     4.74595   -4.93382    8.84612
       O     5.41730   -5.08202    9.53148
      H1     4.94731   -5.25454   10.34736
       H     3.68225   -4.18257    7.43354
       O     3.75589   -5.12398    7.30171
      H1     2.83334   -5.44982    7.13278
       H     4.37239    4.34485    5.38525
       O     3.57843    3.83126    5.49347
      H1     3.28091    3.55427    4.63630
       H     3.75955   -2.22800    5.00858
       O     3.17357   -1.53909    5.27817
      H1     3.43617   -0.67120    4.88289
       H    -1.05036   -5.61625    3.73558
       O    -0.69195   -5.42704    4.67281
      H1    -1.49765   -5.16067    5.13364
       H     4.19072   -4.45321    5.86669
       O     4.29333   -4.06679    4.95903
      H1     3.58704   -4.47067    4.39056
       H     1.89618   -4.57379    2.41628
       O     1.90146   -4.91027    3.28302
      H1     1.04768   -4.61842    3.66723
       H     1.38212   -2.58859    7.89156
       O     0.60729   -2.99873    8.24979
      H1    -0.03048   -2.95819    7.54345
       H     6.67664   -5.62875    8.35848
       O     7.53070   -5.74019    7.92105
      H1     7.40645   -6.32335    7.17316
       H     3.44402   -0.76238    9.96073
       O     3.87351   -1.58226   10.29133
      H1     4.77006   -1.40660   10.53454
       H     1.48096   -1.20245    4.64873
       O     0.61725   -0.79781    4.87065
      H1     0.17528   -0.72239    3.99996
       H     6.55508   -0.48327    6.19966
       O     6.46764    0.04522    7.00853
      H1     6.66627   -0.58867    7.73399
       H     6.10861    2.37466    2.37039
       O     5.85884    1.65922    2.95078
      H1     6.34198    1.71806    3.76876
       H     3.03856   -7.27086   10.50038
       O     2.59925   -7.32005    9.62369
      H1     1.98617   -6.53210    9.47638
       H    -0.78920   -1.09524   10.76987
       O     0.07039   -0.92441   10.28215
      H1     0.28017   -1.69937    9.73875
       H     8.53933   -3.60615    2.76455
       O     9.06128   -3.45610    3.58367
      H1     9.69729   -4.17551    3.69496
       H    -0.60671   -2.02977    5.65287
       O    -1.20720   -2.41277    6.31090
      H1    -1.41118   -1.78168    6.95119
       H     8.54444   -1.62880    8.63101
       O     7.66528   -1.37863    8.98732
      H1     7.41450   -2.20612    9.45980
       H     4.86253    1.16750    7.11426
       O     3.96314    1.46249    6.96015
      H1     3.75368    2.37419    6.63948
       H     3.36043   -7.96898    5.67528
       O     3.69782   -8.54357    4.93584
      H1     2.95490   -9.11586    4.67113
       H     4.24597   -5.04382   12.10664
       O     4.47311   -5.94204   11.82304
      H1     5.35318   -6.13401   12.19798
       H    10.92591   -1.92257    8.20063
       O    10.22367   -1.56412    7.65520
      H1     9.88626   -2.34670    7.19686
       H     3.57066   -2.08002    6.95906
       O     3.85542   -2.54059    7.72047
      H1     3.80752   -2.02555    8.53055
       H    -3.45174    0.13638    5.73753
       O    -2.68068    0.10194    5.13539
      H1    -1.99155    0.04565    5.81713
       H     7.30156   -2.18814    4.65283
       O     6.80882   -1.34447    4.57165
      H1     7.41410   -0.74216    4.09635
       H     0.67946   -4.45229   11.57318
       O     0.65266   -4.15393   12.48790
      H1     0.61562   -4.93870   13.09777
       H    -3.54710   -5.00452    5.80402
       O    -2.73795   -4.86600    6.40066
      H1    -2.38200   -4.01101    6.27511
       H     6.20676   -1.18170   11.44822
       O     6.02213   -0.29414   11.69760
      H1     5.19223   -0.14870   12.23174
       H     1.58232    0.44129    8.67163
       O     2.52155    0.16787    8.66420
      H1     3.00637    0.78493    8.04886
       H     1.54370    0.80871   12.41626
       O     2.23747    1.31020   11.96823
      H1     2.26750    0.88172   11.14571
       H     0.20356   -5.63725   10.23873
       O     0.92867   -5.09552    9.98492
      H1     0.68729   -4.53524    9.28605
       H     1.32535   -7.33792    6.89080
       O     2.24832   -7.45961    6.96968
      H1     2.48307   -7.36759    7.93461
       H     1.99139   -4.46231   -0.17207
       O     2.48638   -4.77679    0.53776
      H1     3.09914   -4.03081    0.62601
       H    -1.47406   -1.36134    2.35189
       O    -0.54182   -0.98338    2.50278
      H1    -0.60089   -0.11270    2.01048
       H     8.43166   -4.36394    6.35777
       O     9.07489   -3.69033    6.17014
      H1     8.94147   -3.56148    5.19331
       H    -0.74247    1.31293    7.43659
       O    -0.59779    0.45064    7.02623
      H1     0.07836    0.48673    6.35470
       H     1.15749    2.31824    2.65579
       O     2.02961    2.62533    3.00833
      H1     2.41886    1.86063    3.44143
       H     3.82931    1.14316    5.32614
       O     3.68144    0.89070    4.33011
      H1     4.51537    1.13967    3.84349
       H     8.38419    0.71795   10.22336
       O     8.62687    1.47708    9.65179
      H1     8.02088    1.34653    8.92637
       H     4.29729   -1.47348    1.91736
       O     3.38261   -1.28802    1.56997
      H1     2.83673   -1.16826    2.37573
       H     6.06271    4.23145    7.80212
       O     6.44251    3.46556    8.27918
      H1     7.24026    3.74048    8.75034

