150
frame 3 | Written by MDAnalysis XYZWriter (release 2.4.3)
       H    -4.38811    4.90455    9.84946
       O    -4.46554    4.64600   10.75189
      H1    -4.80606    3.74668   10.76555
       H    -7.12910    0.62957   11.79823
       O    -6.56815    0.00409   11.37448
      H1    -6.41189   -0.62655   12.10799
       H    -9.75778    7.78205    7.33829
       O    -8.80756    7.57076    7.34471
      H1    -8.76165    6.93351    8.02209
       H    -2.54310   -2.31812   11.82249
       O    -3.39330   -1.83106   11.70078
      H1    -3.27309   -0.92690   11.47147
       H    -8.23887   -4.73764    6.53130
       O    -8.20776   -3.90433    6.00513
      H1    -7.84779   -4.15154    5.11398
       H   -10.05739   -1.94896    2.27228
       O    -9.38203   -2.35389    2.75092
      H1    -9.11825   -1.81938    3.52075
       H    -0.29474    6.25376    5.86007
       O    -0.32342    6.12326    6.83778
      H1     0.48085    6.47551    7.17870
       H    -6.92319    3.59512    6.81815
       O    -6.83208    3.66285    5.86867
      H1    -6.45452    2.79432    5.49522
       H   -10.69272    4.76485    5.88309
       O   -10.07976    4.52566    6.56307
      H1   -10.43295    5.04275    7.29180
       H    -0.44983   -3.20174    3.94782
       O    -0.44819   -2.28885    4.42953
      H1    -0.07022   -2.49282    5.29572
       H    -2.17150    5.72445    9.57270
       O    -2.16493    4.71403    9.56684
      H1    -2.67736    4.51241   10.39128
       H    -3.21781    1.53048    3.60821
       O    -3.45914    2.28919    3.02987
      H1    -4.19634    2.07847    2.44507
       H    -0.70755   -0.77831   13.17020
       O    -0.93416   -0.50844   12.24113
      H1    -1.66363    0.13128   12.45850
       H    -8.20959    2.33668   10.26920
       O    -8.44022    2.31295   11.21317
      H1    -9.19506    1.65269   11.35029
       H    -9.80864   -3.17024    6.43543
       O   -10.58411   -2.70605    6.79277
      H1   -11.24038   -2.51005    6.13185
       H    -8.16430    5.21803   12.11883
       O    -9.05490    4.79590   11.97255
      H1    -8.95325    3.89881   11.64910
       H    -6.16960   -0.44423    4.86617
       O    -5.63306   -1.20157    5.07926
      H1    -6.09915   -1.52493    5.83817
       H    -7.74261    2.33815    2.94029
       O    -7.69568    1.42986    2.60451
      H1    -6.89503    1.30761    2.12382
       H     1.70315    0.21967    4.59632
       O     0.77764    0.28130    4.50876
      H1     0.36792   -0.58928    4.44575
       H    -7.49073    3.86049    8.98102
       O    -7.33994    2.93937    8.63106
      H1    -6.37348    2.75272    8.73783
       H    -1.09330    5.71400    2.96656
       O    -1.84353    6.34316    3.11177
      H1    -2.53963    5.76188    3.54611
       H   -10.50601    2.58699    7.29113
       O   -10.66621    1.73221    7.62251
      H1   -10.98816    1.83976    8.52563
       H    -7.25533    5.42256    5.31096
       O    -7.62651    6.31079    5.24119
      H1    -8.01718    6.54691    6.08822
       H    -4.76745    4.86567    7.04367
       O    -4.30568    5.34781    7.72698
      H1    -3.44048    4.94977    7.70683
       H     1.74498   -1.31187    6.97157
       O     0.83703   -1.68365    6.87542
      H1     0.27977   -0.87552    6.99288
       H    -4.87097   -1.93961   12.84393
       O    -5.75010   -1.85106   13.21156
      H1    -6.15492   -2.73629   13.32185
       H    -6.69144   -2.69391    9.64203
       O    -6.68358   -3.45391   10.22512
      H1    -6.04466   -3.19107   10.86358
       H    -8.48345   -0.07790    5.57745
       O    -8.63920   -0.24270    4.62035
      H1    -8.30422    0.56043    4.12766
       H    -4.79740    1.81949    5.68992
       O    -5.33663    1.74406    4.87858
      H1    -4.69931    2.12585    4.27298
       H    -1.10075   -4.44751    9.24765
       O    -1.88048   -4.95400    8.96040
      H1    -2.64330   -4.35713    9.10207
       H    -3.85485   -0.86018    4.53040
       O    -2.90463   -0.70143    4.35668
      H1    -2.44806   -1.47035    4.64250
       H    -6.49771    5.98898   13.43549
       O    -6.54162    5.13310   12.96670
      H1    -5.87440    5.23817   12.28526
       H    -6.46963   -4.28727    3.12478
       O    -6.46337   -3.92006    4.03440
      H1    -6.18210   -2.99929    3.99789
       H    -2.01765    3.71530    8.00258
       O    -1.76781    3.71750    7.01811
      H1    -1.25095    4.53786    6.85890
       H    -8.81445    5.58640   10.06038
       O    -8.22639    5.82529    9.36660
      H1    -7.56842    6.31138    9.81553
       H    -2.49169   -4.64038    5.62234
       O    -1.61462   -4.91130    6.06974
      H1    -1.85371   -4.74109    7.02458
       H     0.08826    3.20383    8.37185
       O     0.55761    2.92294    9.18005
      H1     0.85884    1.99387    9.02699
       H    -9.18708    0.41204    7.81431
       O    -8.68193   -0.38054    7.52741
      H1    -9.28418   -1.09382    7.36274
       H    -0.01213    1.12134   12.52969
       O     0.34406    1.92390   12.04098
      H1     0.21436    1.74486   11.10122
       H    -8.76431    4.59566    3.33585
       O    -9.15845    3.73903    3.49250
      H1    -8.97744    3.64957    4.45638
       H    -5.19950   -3.75705    8.55747
       O    -4.35460   -3.90760    8.08755
      H1    -4.55148   -4.50685    7.31664
       H    -2.08203    1.68422    0.19794
       O    -1.82116    2.12982    1.02521
      H1    -2.56546    2.27989    1.66868
       H    -1.08749    1.60939    7.00085
       O    -0.53803    0.83127    6.93105
      H1    -0.12714    0.92930    6.02108
       H    -4.53793    5.31834    3.69122
       O    -3.98220    5.20875    4.51025
      H1    -3.84027    4.26501    4.55234
       H    -2.51603    2.05502   13.23771
       O    -2.85801    1.27459   12.70711
      H1    -3.36886    0.81308   13.31539
       H    -3.09991   -1.73513    2.76572
       O    -3.14202   -2.46644    2.08675
      H1    -3.94466   -2.21622    1.55609
       H    -7.27880   -0.73781    8.40756
       O    -6.51171   -0.98280    8.96832
      H1    -6.59742   -0.37027    9.77553
       H    -3.72463    1.91107   11.18310
       O    -4.61924    1.94495   10.64245
      H1    -5.08715    1.14836   10.96364
       H    -5.31244    0.49865    8.02195
       O    -4.90992    1.35065    7.77622
      H1    -4.27566    1.46685    8.48178
       H    -6.07268    7.10812    5.70118
       O    -5.29596    7.73776    5.71825
      H1    -4.51677    7.15894    5.74408

