150
frame 7 | Written by MDAnalysis XYZWriter (release 2.4.3)
       H    17.30791   15.82228    3.09466
       O    16.98016   15.63474    2.20353
      H1    17.54002   14.91009    1.76479
       H     8.65229   16.44477    3.32088
       O     8.62650   17.38902    3.62644
      H1     8.47659   17.40523    4.58649
       H     3.60092   18.99163    0.35250
       O     2.93302   19.22441    0.98798
      H1     2.12187   18.73394    0.84147
       H    14.02648   16.72554    2.97119
       O    14.20572   15.83161    2.67014
      H1    15.12975   15.78002    2.50653
       H     7.79844   15.83642    8.30931
       O     7.44446   14.96581    8.04328
      H1     6.80510   15.24916    7.37947
       H     8.81162    9.78786    3.84554
       O     9.56329    9.80746    3.17271
      H1     9.57489   10.72027    2.93846
       H    14.10685   19.01396   -1.26556
       O    14.57425   19.61792   -1.79442
      H1    14.82437   19.08512   -2.61805
       H     3.53041   19.18518    5.67280
       O     2.63680   18.94115    6.04615
      H1     2.37118   19.65143    6.68182
       H    14.07914   16.34307    8.10156
       O    14.14705   16.08179    9.03800
      H1    15.09327   15.82235    9.21560
       H    13.04754   19.17147    2.75358
       O    13.86461   19.14829    2.29801
      H1    14.35892   19.88869    2.65693
       H     7.07589   18.32137   -3.45714
       O     6.67372   17.41883   -3.19019
      H1     6.91089   17.24255   -2.22725
       H    11.03868   17.82310   -2.13093
       O    11.10702   18.48340   -2.87158
      H1    11.96082   18.87417   -2.71865
       H     9.84394   17.02876   11.57668
       O    10.70657   16.88998   11.08773
      H1    11.44046   16.85592   11.69795
       H     3.70357   14.57926    2.65020
       O     3.28621   15.16589    2.04921
      H1     3.37537   16.08935    2.42143
       H    11.08951   17.55421    9.45713
       O    11.17654   17.89134    8.53112
      H1    10.24024   17.88796    8.20442
       H     8.09734   15.57341    0.25208
       O     7.77595   15.26931   -0.63252
      H1     7.66094   14.33038   -0.55391
       H     5.91102   18.66879   -0.79167
       O     4.95582   18.88768   -0.70948
      H1     4.57410   18.80501   -1.55493
       H    13.64427   17.35386    5.82944
       O    14.47369   17.34694    6.31405
      H1    14.57425   18.26137    6.65427
       H    12.46622   15.74976    1.50749
       O    11.84825   15.50579    0.82134
      H1    11.55646   16.31670    0.36403
       H    10.57578   13.46869    4.98129
       O    10.65066   12.56331    4.59470
      H1    11.37641   12.58389    3.97450
       H    12.55482   14.44359   -0.31094
       O    12.96240   13.72601   -0.87663
      H1    12.25254   13.73439   -1.62337
       H     8.46338   18.24433    8.67586
       O     8.52193   17.68307    7.89374
      H1     8.32013   18.27151    7.14495
       H    16.62293   17.49585    1.62840
       O    16.41711   18.38965    1.39774
      H1    15.43004   18.49983    1.50147
       H    15.65552   15.18833    5.20651
       O    15.47004   14.25911    5.27829
      H1    15.96698   13.90229    6.08209
       H     8.62504   14.74467    6.86903
       O     9.14345   14.68130    6.01583
      H1     8.48270   14.43269    5.35418
       H    12.51068   19.17980    9.22899
       O    13.19275   19.84932    9.25902
      H1    13.87984   19.46017    8.64098
       H    10.05078   16.20735   -0.99715
       O    10.21752   17.05961   -0.63953
      H1     9.42704   17.63850   -0.51462
       H     6.55054   14.57025    3.39820
       O     7.15463   14.94481    4.01236
      H1     6.59117   15.08687    4.72490
       H    10.79930   15.01951   -3.69950
       O    10.48647   14.60243   -2.83532
      H1     9.48319   14.64037   -2.93247
       H     8.67627   12.28213   -1.97144
       O     8.47344   12.19453   -1.02245
      H1     8.97724   11.42788   -0.84576
       H    12.25492   18.89007   -0.07045
       O    13.06371   18.32227   -0.09980
      H1    13.46856   18.72196    0.76450
       H    11.10444   17.86778    4.71358
       O    11.12036   18.56321    4.00955
      H1    10.39530   18.18915    3.49110
       H     6.19289   19.44986    3.12500
       O     6.99766   19.27500    2.60261
      H1     7.54747   18.70312    3.16567
       H    10.84940   12.00467    8.06019
       O     9.99760   11.86851    7.57561
      H1    10.22069   12.14594    6.72236
       H    11.30257   16.99651    6.95136
       O    11.06474   16.56674    6.14414
      H1    10.27773   16.08100    6.29683
       H     7.49820   18.62103    0.74664
       O     7.84039   18.48201   -0.14565
      H1     8.07845   19.40106   -0.40065
       H     4.49238   17.90943    3.45448
       O     3.61525   17.56206    3.14112
      H1     3.39579   18.09867    2.40649
       H     6.10415   15.27522    9.27721
       O     5.46178   15.37187    9.99796
      H1     4.74491   15.98610    9.67857
       H     5.12329   13.97500    5.91718
       O     5.30255   14.84430    6.31781
      H1     4.45677   15.26835    6.54430
       H    11.11419   15.13979   10.59621
       O    11.20577   14.17275   10.70720
      H1    10.41895   13.92478   11.28371
       H    12.04104   12.45102    1.65787
       O    11.68525   12.20950    0.75945
      H1    12.08220   12.89129    0.16439
       H     7.48390   11.74989    1.96419
       O     6.59201   11.39042    2.08278
      H1     6.53427   10.62954    1.53833
       H     4.34249   15.33431    0.61347
       O     4.70866   15.13247   -0.26505
      H1     5.68614   15.21929   -0.24962
       H    16.11184   17.57732    5.30980
       O    16.91883   17.60199    4.75640
      H1    17.58840   17.17263    5.27368
       H    14.64158   13.13685   -0.45019
       O    15.54504   12.73033   -0.55335
      H1    15.47361   11.82285   -0.84469
       H    10.02128   15.49024    1.35797
       O     9.10912   15.33360    1.69896
      H1     9.06275   14.36432    1.91375
       H    13.47407   13.89182    3.45263
       O    13.03825   13.06074    3.14901
      H1    13.63075   12.28576    3.17119
       H     6.86615   19.64316    5.52996
       O     7.59157   19.08626    5.69968
      H1     8.35735   19.70164    5.52602
       H     9.79914   12.70498    2.91790
       O     9.23347   12.53428    2.10422
      H1     9.75489   12.58400    1.24312
       H     5.23539   12.44311    2.64902
       O     4.77910   13.17346    3.09782
      H1     4.05256   12.79781    3.58850

