150
frame 9 | Written by MDAnalysis XYZWriter (release 2.4.3)
       H    -4.44426    3.55205   -2.85600
       O    -4.54079    2.70667   -3.38585
      H1    -5.45644    2.77151   -3.59788
       H    -4.66907   -2.41065   -6.28206
       O    -4.26943   -1.79703   -6.82948
      H1    -4.72993   -1.94208   -7.66453
       H    -2.22283    3.81990    1.39820
       O    -1.46070    3.25346    1.01751
      H1    -1.35746    2.57605    1.69515
       H    -7.28366    5.26162   -3.74545
       O    -7.40903    5.22579   -2.75694
      H1    -7.58703    4.29883   -2.59581
       H    -0.53698   -2.69849   -4.43797
       O    -1.32231   -2.42747   -3.94797
      H1    -1.11066   -1.51846   -3.68478
       H    -3.87980   -0.03137   -6.18550
       O    -4.04588    0.84740   -5.86016
      H1    -3.34477    1.08843   -5.22080
       H    -2.47205   -4.87884   -4.05464
       O    -2.40768   -5.39153   -4.85559
      H1    -2.10617   -4.74751   -5.55362
       H     0.56273    1.32014   -5.52949
       O     0.66143    2.27538   -5.52937
      H1    -0.14393    2.55472   -5.99691
       H    -4.25275   -2.98694   -2.04405
       O    -3.71529   -3.54289   -2.60933
      H1    -3.05382   -2.92749   -3.06238
       H    -3.25960    7.56319   -0.82831
       O    -3.94052    6.95587   -0.49649
      H1    -4.11295    6.39251   -1.31271
       H     1.97596    0.99820   -0.01069
       O     2.17930    1.91850   -0.23195
      H1     3.09483    1.98761   -0.45063
       H    -6.42677    4.24990   -5.82154
       O    -6.94120    5.03702   -5.47761
      H1    -7.86011    4.75736   -5.42183
       H    -5.83998    4.46451    1.19097
       O    -6.09999    4.38270    0.27254
      H1    -6.76489    3.69874    0.33143
       H    -4.42637    5.49056   -3.11985
       O    -4.55325    5.08061   -2.25722
      H1    -5.53124    5.07022   -2.06050
       H    -3.89895    5.41180    0.70753
       O    -3.32638    5.18530    1.48532
      H1    -2.74209    5.94810    1.63587
       H     1.35114   -2.16464   -0.58351
       O     2.01793   -2.71887   -0.97137
      H1     2.40243   -2.14167   -1.61498
       H    -5.26128    3.24806   -7.61613
       O    -5.50162    3.10820   -6.67567
      H1    -4.88634    2.39448   -6.44980
       H    -2.32926    2.21486    4.64850
       O    -2.89625    2.71789    4.02689
      H1    -3.56960    2.11808    3.62136
       H    -0.25110    6.18815   -0.89345
       O     0.12127    5.47827   -0.31420
      H1    -0.55723    4.79541   -0.19731
       H     2.27149   -1.00250   -4.24244
       O     1.45946   -0.71738   -4.75807
      H1     1.19972   -1.51398   -5.28035
       H    -4.29328    1.11760    1.59020
       O    -4.44818    0.50915    2.26433
      H1    -5.11561   -0.08752    1.91973
       H     2.28012    3.92735   -2.82193
       O     2.86980    3.14434   -2.71589
      H1     2.32039    2.37411   -2.48557
       H    -6.51924   -0.84366    4.19321
       O    -6.58353   -1.76457    3.93840
      H1    -7.25447   -1.81366    3.21752
       H    -1.52397    1.79004   -4.11809
       O    -2.23845    2.32069   -4.48109
      H1    -3.09938    2.24979   -4.00350
       H    -2.46486    0.27929   -2.21035
       O    -1.53273    0.11129   -2.35818
      H1    -1.01640    0.91263   -2.21721
       H    -4.12392    5.71015   -5.99614
       O    -3.95904    5.55242   -5.04856
      H1    -3.01150    5.32862   -4.97363
       H    -4.61549   -1.31369   -0.70919
       O    -4.78450   -2.12432   -0.24046
      H1    -5.76418   -2.09876   -0.13979
       H    -8.71690    2.15161   -2.87416
       O    -7.77226    2.42520   -2.74481
      H1    -7.23314    1.73362   -3.21364
       H   -10.30926    1.47562   -1.61599
       O   -10.30755    1.70122   -2.54190
      H1   -10.99123    2.42802   -2.55300
       H    -3.83383   -5.42779   -1.09201
       O    -4.76208   -5.69132   -0.93765
      H1    -5.33815   -4.97408   -1.28378
       H     0.33010    2.72566   -1.58055
       O     0.00665    2.30637   -2.39747
      H1     0.12624    2.93918   -3.09986
       H    -7.61003    1.38568    3.37041
       O    -8.21387    0.66499    3.01105
      H1    -9.12223    1.04915    3.06519
       H    -6.50810   -0.40299   -3.69521
       O    -6.15781    0.47462   -3.85881
      H1    -5.59785    0.49860   -4.67498
       H    -7.60013   -2.79384   -0.53628
       O    -7.48391   -1.79227   -0.37841
      H1    -7.99356   -1.72929    0.41492
       H    -1.44511   -4.54429   -0.39157
       O    -2.13491   -5.06681   -0.91829
      H1    -2.56807   -4.36186   -1.45685
       H    -1.87364   -2.51195    2.08839
       O    -1.03090   -2.19629    1.71379
      H1    -0.71736   -3.03596    1.32893
       H    -1.29684   -0.39004    2.11208
       O    -1.48721    0.55535    2.36439
      H1    -2.45838    0.44725    2.41811
       H    -4.28416    2.96734   -0.38172
       O    -3.74502    2.24931    0.01531
      H1    -2.85920    2.64517    0.06590
       H    -7.72902   -4.85425   -1.92414
       O    -7.42719   -4.55317   -1.06223
      H1    -7.84641   -5.07384   -0.38350
       H    -4.13130   -2.45664    3.16295
       O    -3.78635   -2.81875    2.41643
      H1    -4.31999   -2.49509    1.68285
       H    -4.74275    5.55723    2.51446
       O    -5.64813    5.43212    2.83058
      H1    -5.89115    6.33535    3.12047
       H    -8.37239    0.89916   -6.01164
       O    -7.95723    1.25392   -6.79271
      H1    -7.02548    1.29832   -6.60533
       H    -1.81048    3.99025   -4.24324
       O    -1.41323    4.79470   -3.82190
      H1    -1.48339    4.52640   -2.88377
       H    -0.33551   -1.28385    0.14946
       O     0.16437   -0.77202   -0.48546
      H1    -0.45705   -0.66093   -1.24105
       H    -4.85999    0.50490   -2.48218
       O    -4.24200    0.17258   -1.79713
      H1    -3.87243    0.90405   -1.35307
       H    -9.07368    2.71525   -0.19287
       O    -8.20428    2.26193   -0.21771
      H1    -7.90399    2.35583   -1.15836
       H    -2.18093    2.09785   -6.77463
       O    -1.42550    2.26132   -7.36494
      H1    -1.59233    3.09782   -7.65163
       H   -10.00680   -0.87598   -0.67608
       O   -10.10870   -0.08832   -0.11999
      H1    -9.26905    0.41647   -0.15527
       H    -5.64976   -4.44858   -5.38377
       O    -5.43999   -3.66974   -4.86634
      H1    -4.76142   -3.97891   -4.25851
       H    -4.73023   -5.28044    0.65607
       O    -4.87537   -5.17682    1.63570
      H1    -4.36556   -4.35786    1.91837

