150
frame 0 | Written by MDAnalysis XYZWriter (release 2.4.3)
       H    -9.82564   11.96970   -9.68655
       O    -9.11571   11.30245   -9.61045
      H1    -8.79702   11.12339  -10.52094
       H    -4.35592    9.79199   -6.59716
       O    -4.34068    8.92446   -6.25282
      H1    -4.42106    8.34669   -7.05014
       H   -11.56525    7.28470  -10.89575
       O   -10.90685    6.67190  -11.25871
      H1   -10.47922    6.37141  -10.46579
       H    -9.33150    7.77100  -12.40631
       O    -8.74491    7.58893  -13.22483
      H1    -7.95544    8.18700  -13.18488
       H    -4.15490   12.62772   -6.80000
       O    -3.99169   11.68050   -7.13292
      H1    -3.00826   11.77556   -7.17618
       H   -12.04767    9.45324  -14.85044
       O   -12.86089    9.62710  -14.33936
      H1   -13.42519    8.97877  -14.77971
       H    -2.36430    8.79737  -11.99154
       O    -2.14718    9.77210  -12.11729
      H1    -2.41770   10.06581  -11.26724
       H    -8.31832   13.24396  -14.16604
       O    -8.53619   12.32181  -14.37791
      H1    -9.52360   12.38753  -14.36284
       H    -7.68202   11.81559   -8.86950
       O    -6.87979   12.17221   -8.39404
      H1    -6.86389   11.55564   -7.64995
       H    -4.40309    7.96353  -14.52769
       O    -4.95473    8.70014  -14.72462
      H1    -5.46531    8.27469  -15.35446
       H   -13.04118    9.43038  -12.27799
       O   -12.85518    9.03725  -11.44792
      H1   -12.59897    9.83858  -10.92188
       H    -5.75596   14.20145  -13.76127
       O    -4.80936   14.15088  -13.92115
      H1    -4.57930   13.24924  -14.13760
       H   -10.93351    7.73047  -15.70112
       O   -10.66261    8.61074  -15.93461
      H1   -11.45232    8.92064  -16.33121
       H    -5.27666    9.00225  -10.06075
       O    -5.37335    8.08535  -10.24218
      H1    -5.60009    7.68085   -9.34366
       H    -9.26418    7.87809   -7.21768
       O    -8.60029    7.54176   -6.60614
      H1    -8.88816    6.62385   -6.44380
       H    -5.78356    5.72282   -7.72667
       O    -5.85729    6.68099   -7.91024
      H1    -6.78593    6.78550   -7.61591
       H    -5.78996   12.74727   -9.61595
       O    -5.27031   13.30994  -10.26600
      H1    -5.69648   12.97943  -11.07623
       H    -9.16182    8.40654  -16.40581
       O    -8.25897    8.23530  -16.69230
      H1    -7.94169    7.63358  -15.98452
       H   -12.23910   10.00506   -6.53968
       O   -12.03984    9.08710   -6.25432
      H1   -11.22896    9.23738   -5.77320
       H    -8.06625   10.14749  -16.27784
       O    -7.78412   11.05821  -16.59962
      H1    -8.02747   11.60931  -15.78686
       H    -7.11184    4.85257  -12.69931
       O    -6.80443    5.72979  -12.97406
      H1    -7.64778    6.22600  -13.16700
       H   -10.42941   14.28519  -10.75320
       O   -11.06435   13.81937  -10.22904
      H1   -11.19872   14.57381   -9.59285
       H    -9.45065   16.25894  -11.72339
       O    -9.39144   15.29948  -11.58145
      H1    -8.87648   15.18459  -10.75038
       H   -12.39995   14.94490   -7.41405
       O   -12.50735   15.54180   -8.24419
      H1   -13.12528   16.22937   -7.82356
       H    -8.14178   10.65717   -4.53990
       O    -8.19896   11.25037   -3.76155
      H1    -7.23093   11.18810   -3.44997
       H    -7.72905   15.15031  -13.02673
       O    -7.43629   14.46268  -13.67861
      H1    -7.22168   14.92735  -14.49826
       H    -3.15031    7.15931  -12.20762
       O    -3.09555    7.41860  -11.25297
      H1    -4.04350    7.73216  -11.07139
       H    -5.34344   16.24700  -10.12972
       O    -4.87910   15.85491   -9.32471
      H1    -4.89583   14.89492   -9.45633
       H   -13.54424    7.40583  -12.27589
       O   -13.76697    6.70513  -12.90242
      H1   -12.91707    6.58649  -13.36751
       H    -8.12417   14.20015   -4.30416
       O    -7.66588   13.86247   -5.08836
      H1    -7.61176   12.97623   -4.80933
       H    -7.68851   14.40146   -8.70458
       O    -7.54238   15.29391   -9.06488
      H1    -6.59816   15.50054   -8.91152
       H   -11.76926   15.01694  -12.30026
       O   -12.27434   15.24697  -13.13154
      H1   -12.94156   15.83894  -12.79219
       H   -12.11282   12.10356  -14.31287
       O   -11.27265   12.52655  -13.99721
      H1   -11.36400   13.50356  -14.08520
       H    -8.74283   13.90555   -6.48178
       O    -9.45029   13.96072   -7.20043
      H1    -9.36166   14.92221   -7.32087
       H    -3.75852   11.18300   -8.97885
       O    -3.54378   10.82735   -9.88756
      H1    -3.34285   11.63913  -10.33386
       H   -11.13947    5.69167  -15.04203
       O   -11.37842    6.39267  -14.43863
      H1   -10.58595    6.64221  -13.93236
       H    -5.45086    5.55573  -10.53155
       O    -4.65201    5.02656  -10.26069
      H1    -3.91583    5.66703  -10.39372
       H    -9.08265    8.37648   -5.30325
       O    -9.70742    8.94547   -4.74285
      H1    -9.43065    8.65098   -3.83297
       H    -7.43640   11.72769  -12.70872
       O    -7.06454   11.42519  -11.89371
      H1    -6.15262   11.28421  -12.15906
       H    -3.80210   10.48974  -12.74143
       O    -4.67896   10.90714  -12.97528
      H1    -4.93590   10.18778  -13.55451
       H   -10.73390    9.16679   -7.99302
       O    -9.88855    8.95764   -8.40953
      H1    -9.57923    9.77875   -8.79726
       H   -13.82672   11.84439   -9.28898
       O   -13.71941   12.29267  -10.13595
      H1   -12.78889   12.55405  -10.12912
       H    -5.40440   14.18795   -6.30220
       O    -4.45957   14.24901   -6.62440
      H1    -4.22837   15.06386   -6.13003
       H    -3.05270   12.84219  -12.51345
       O    -2.77183   12.82972  -11.57648
      H1    -3.58096   13.11186  -11.17225
       H    -1.84877    7.90818   -8.24304
       O    -2.68650    7.42314   -8.25224
      H1    -3.26406    7.97025   -8.80282
       H   -12.30443   13.76165   -5.39124
       O   -12.03951   13.80693   -6.31663
      H1   -11.02726   13.63814   -6.31573
       H   -16.01909   11.44359  -11.36224
       O   -15.69736   12.33978  -11.72804
      H1   -14.87698   12.44149  -11.23030
       H   -12.32358   12.45027   -7.19936
       O   -12.52474   11.52480   -7.40030
      H1   -13.50611   11.53505   -7.10673
       H   -15.96978    9.69190  -10.10406
       O   -15.22908    9.21408   -9.62939
      H1   -14.58857    9.12209  -10.34680
       H    -6.03601    9.25785   -5.94227
       O    -6.88506    9.80474   -6.00663
      H1    -7.52346    9.12362   -5.69223

