150
frame 0 | Written by MDAnalysis XYZWriter (release 2.4.3)
       H     1.91840   19.05606   -7.86273
       O     2.12519   18.11559   -8.18236
      H1     2.94423   17.83650   -7.79117
       H     5.26158   16.96310  -13.30493
       O     4.91371   17.63256  -13.91863
      H1     3.96332   17.62746  -13.77042
       H     9.19171   17.38706  -12.87713
       O     8.98508   16.47154  -12.96047
      H1     9.79878   16.00392  -12.88133
       H     1.72247   12.11137   -8.41110
       O     2.70026   12.24282   -8.44997
      H1     2.86338   13.17670   -8.60524
       H     7.40748   16.28531  -11.79900
       O     6.49190   16.09880  -11.65669
      H1     6.53144   16.29796  -10.71038
       H     6.40597   13.45116   -1.35635
       O     5.75631   13.52971   -2.06527
      H1     6.22002   13.13731   -2.85474
       H     3.79301   15.32469   -9.03784
       O     2.96478   14.91608   -9.33740
      H1     2.19966   15.29951   -8.85994
       H    13.29402   19.06971   -6.71097
       O    13.77119   18.66585   -5.98863
      H1    13.05800   18.17798   -5.53270
       H     4.08446   12.21206  -12.29233
       O     4.07699   11.86166  -11.42074
      H1     3.16831   11.77026  -11.16060
       H     6.51076   12.71462   -5.23588
       O     7.07034   12.77121   -4.47043
      H1     7.35784   11.85542   -4.28106
       H     2.98089   15.15207  -11.29112
       O     3.13666   15.16735  -12.28053
      H1     2.38096   14.95515  -12.79213
       H     5.39097   15.35508  -16.57471
       O     6.30968   15.18178  -16.40392
      H1     6.40300   14.83584  -15.51232
       H    11.91485   13.82931   -9.49897
       O    12.76749   13.82160   -9.90931
      H1    12.74987   14.36566  -10.72826
       H    10.16841   12.56285   -8.81210
       O     9.73629   13.45686   -9.15467
      H1     9.79484   13.60544  -10.11724
       H    10.97579   10.90081   -9.27290
       O    10.92227   11.23660   -8.34181
      H1    10.05434   10.82006   -8.02716
       H     9.21069   19.31656  -15.00743
       O     9.88408   18.73746  -14.57499
      H1     9.62418   17.79134  -14.70980
       H    11.19417   16.01915   -7.41648
       O    12.14830   16.05493   -7.41414
      H1    12.34828   15.17180   -7.05895
       H     3.51021    8.59232  -11.85551
       O     4.24605    8.89700  -11.26562
      H1     4.20851    9.85965  -11.27859
       H     9.49376   16.93504   -8.45804
       O     9.35377   16.14260   -7.91640
      H1     9.47918   15.32871   -8.45705
       H     7.09706   17.30181   -3.31655
       O     7.82904   17.85364   -2.91090
      H1     8.47295   17.82703   -3.59897
       H     5.79974   16.66180   -8.29220
       O     6.52469   16.66262   -8.94589
      H1     7.33569   16.40966   -8.48838
       H     8.99182   14.86623  -15.20090
       O     9.69270   15.28847  -15.73481
      H1     9.18426   15.80617  -16.40759
       H     0.46400   15.55822   -7.34523
       O     0.68674   15.85360   -8.26588
      H1     1.11891   16.73584   -8.13472
       H     3.21657   18.73327  -11.99237
       O     3.08478   19.29170  -11.26171
      H1     2.32380   18.99138  -10.80350
       H     1.77738   17.25001  -13.92549
       O     2.00429   18.10290  -14.21344
      H1     2.39230   17.96659  -15.08692
       H     4.57247   17.67190   -6.19367
       O     4.47319   17.01345   -6.87882
      H1     3.95343   16.30049   -6.40769
       H     6.50238   18.14147  -10.19680
       O     6.36311   19.00703  -10.51618
      H1     5.38581   19.07002  -10.52374
       H     8.38616   19.49872   -8.34448
       O     9.27633   19.05506   -8.50927
      H1     9.41675   19.06178   -9.46587
       H    10.06495    9.55735   -6.68974
       O     9.35454   10.17709   -6.50681
      H1     9.73354   10.95618   -6.08824
       H     8.72415   13.02929   -5.01371
       O     9.60964   12.85765   -5.41731
      H1    10.20466   13.22994   -4.73961
       H     2.66339   12.15827   -6.62303
       O     2.78454   12.19771   -5.65390
      H1     1.94363   12.02302   -5.25549
       H     1.27479   10.27091  -10.41813
       O     1.46440   11.11787  -10.85130
      H1     1.33400   11.77489  -10.21861
       H     7.99337   12.91632   -8.61171
       O     7.03225   12.67805   -8.68534
      H1     6.69678   13.08395   -9.49298
       H    10.06669   13.20146  -12.22684
       O     9.27117   13.59080  -11.79617
      H1     8.76172   12.79981  -11.55450
       H     4.62240   16.92674   -2.73665
       O     5.11724   16.27422   -3.27360
      H1     4.92421   15.47820   -2.80222
       H    11.32038   15.25403   -4.03363
       O    11.51635   14.41466   -3.59746
      H1    11.17122   14.57185   -2.67353
       H     5.68135   10.93687   -8.21916
       O     5.34663   10.14735   -7.68398
      H1     4.51717    9.84103   -8.02432
       H     7.91832   10.27610  -10.96247
       O     7.88925   11.09881  -11.50285
      H1     6.99115   11.50646  -11.47290
       H     4.86386   19.64159   -5.24100
       O     4.35043   18.89815   -4.90603
      H1     4.05493   19.20816   -4.07497
       H     6.28294   14.51481  -11.43820
       O     6.34926   13.57066  -11.22925
      H1     5.44410   13.27110  -11.33470
       H     9.17919   16.69067   -5.81922
       O     9.19583   17.56127   -5.40659
      H1     9.45499   18.15305   -6.08012
       H    10.77764   18.79176  -11.31563
       O     9.83499   18.57944  -11.13432
      H1     9.34217   19.39975  -11.32401
       H     3.80390   15.31153   -4.69633
       O     3.14965   14.99333   -5.27691
      H1     3.19908   14.00996   -5.19676
       H     6.20634   10.83646  -14.62643
       O     6.04345   11.53448  -14.02962
      H1     6.63169   12.30823  -14.24744
       H    12.07580   17.55857   -3.48175
       O    11.79075   17.41828   -4.38135
      H1    10.81413   17.54821   -4.42159
       H     6.18309   12.89422   -7.22306
       O     5.44722   12.92082   -6.58407
      H1     5.06030   12.06493   -6.59576
       H    10.96232   16.70918  -11.82215
       O    11.38639   15.85882  -11.99625
      H1    11.98806   16.06511  -12.72982
       H     7.90861   13.83792  -13.35017
       O     7.80197   13.47742  -14.26492
      H1     8.59458   12.95529  -14.49710
       H    -0.69602   16.12282   -9.20029
       O    -1.46057   16.12335   -9.85414
      H1    -1.89547   16.98777   -9.96819
       H    12.47404   12.69205   -5.88597
       O    12.77313   13.57370   -6.07852
      H1    12.65021   14.03727   -5.21307

