150
frame 3 | Written by MDAnalysis XYZWriter (release 2.4.3)
       H   -17.18044   10.86089  -10.38896
       O   -17.52938    9.94074  -10.46218
      H1   -18.25610    9.74278   -9.84701
       H   -17.40743   12.73597   -0.03139
       O   -18.01510   12.54178   -0.76416
      H1   -17.57191   13.02801   -1.55892
       H   -17.11788   10.59780   -5.77139
       O   -17.27985   10.39019   -4.85066
      H1   -17.60776    9.46704   -4.76168
       H   -13.25075   12.31544  -12.78591
       O   -13.39927   12.02465  -11.85210
      H1   -14.29083   12.18404  -11.59968
       H   -15.09905   14.36849  -13.69059
       O   -15.65936   14.57952  -12.92012
      H1   -16.47427   14.08393  -13.10655
       H   -14.59777    8.66107   -1.80100
       O   -13.87980    8.63475   -2.48094
      H1   -14.00183    9.45631   -3.02136
       H   -12.94924   16.02784    0.03884
       O   -13.79803   15.67350   -0.34263
      H1   -14.23985   16.41689   -0.81170
       H   -18.70342   17.97797   -5.32588
       O   -18.37209   18.02292   -6.21225
      H1   -18.58351   18.96942   -6.54988
       H   -13.48631    9.35879   -9.99957
       O   -12.80809    8.90135  -10.54249
      H1   -12.00063    9.40791  -10.36738
       H   -19.89875   17.98719    1.35179
       O   -19.12523   18.52086    1.59069
      H1   -19.55874   19.13646    2.26864
       H   -18.31216   17.84577  -13.82299
       O   -18.06503   16.90220  -13.90972
      H1   -17.73482   16.87741  -14.82430
       H   -14.45383   12.10878   -5.44468
       O   -14.64447   12.83017   -6.08233
      H1   -13.80306   13.13646   -6.45024
       H   -12.59674   10.36195   -6.62457
       O   -12.68326    9.67011   -7.29560
      H1   -13.47424    9.93083   -7.80504
       H   -13.29914   17.29926   -4.33146
       O   -13.09890   17.94338   -3.62632
      H1   -12.43856   17.50702   -3.05719
       H   -15.07220   18.43349   -1.31211
       O   -15.40822   17.57305   -1.59411
      H1   -15.02881   17.33477   -2.42844
       H   -15.16988   15.73133    0.89398
       O   -15.96402   15.62307    1.41441
      H1   -16.75422   15.75632    0.77466
       H   -18.46895   18.40897   -0.41497
       O   -18.34405   18.13343   -1.30592
      H1   -17.38817   18.09691   -1.41552
       H   -14.89507   13.30791   -2.42898
       O   -14.12245   12.67219   -2.45809
      H1   -13.98178   12.51203   -1.51317
       H   -10.75287   16.93608   -6.17419
       O   -11.13022   16.39143   -6.92260
      H1   -12.07650   16.60496   -6.98147
       H   -17.17635   12.38412  -13.71636
       O   -17.77089   13.14173  -13.85761
      H1   -18.56654   12.78333  -13.50239
       H   -17.20892    7.27211   -3.95846
       O   -17.94759    7.78970   -3.63170
      H1   -17.70527    8.40086   -2.93810
       H   -14.27570   11.43363   -3.49530
       O   -14.51025   10.77725   -4.25030
      H1   -15.51313   10.79381   -4.21063
       H   -17.32273   12.87837  -11.43500
       O   -16.68923   12.36410  -10.92800
      H1   -16.55616   13.02942  -10.10324
       H   -14.42540   16.87355  -11.65640
       O   -14.37137   16.23953  -10.89331
      H1   -14.98099   15.55655  -11.18238
       H   -17.34511    6.45374   -6.27616
       O   -16.45368    6.36933   -5.85674
      H1   -15.94326    6.12631   -6.63594
       H   -11.37166   12.59150   -4.02886
       O   -11.58916   13.44730   -3.62156
      H1   -12.28238   13.30810   -2.97033
       H   -16.41066   14.81834   -1.67363
       O   -16.54547   14.37455   -2.59325
      H1   -17.55872   14.43463   -2.78695
       H   -19.29196   13.32004   -3.75917
       O   -19.22074   13.99895   -3.06810
      H1   -19.25880   13.51530   -2.26136
       H   -14.37531   16.41500   -6.92259
       O   -13.93125   16.47116   -6.06651
      H1   -13.40345   15.64805   -5.94052
       H   -15.20088   10.95527  -14.02639
       O   -16.14347   11.03961  -13.74291
      H1   -16.61967   10.59709  -14.49067
       H   -19.48426   15.55384   -6.15346
       O   -19.40660   14.76616   -6.70702
      H1   -18.68032   14.90996   -7.28684
       H   -15.67484   19.29764   -9.35312
       O   -15.83684   19.40999   -8.40061
      H1   -15.01127   19.75272   -7.99363
       H   -11.87674   13.79943   -8.42104
       O   -11.83659   13.79615   -7.45530
      H1   -11.47179   14.66156   -7.13695
       H   -16.66711   17.98490   -5.31021
       O   -15.82932   18.08271   -4.88268
      H1   -15.18777   17.39449   -5.25640
       H   -19.04032   17.58078   -9.52674
       O   -19.11435   17.10294   -8.69398
      H1   -18.94958   17.67762   -7.90493
       H   -19.48506   19.77013  -10.78488
       O   -18.72716   19.29203  -10.34785
      H1   -18.89287   19.61524   -9.41295
       H   -16.11519   17.40126   -8.22661
       O   -15.72913   16.51950   -8.42214
      H1   -15.49670   16.56756   -9.33744
       H   -16.34722   10.60101   -7.99752
       O   -16.60263   11.23417   -7.30835
      H1   -15.80251   11.55647   -6.96119
       H   -16.56761   19.64936   -3.25680
       O   -17.50860   19.88445   -3.14403
      H1   -17.94462   19.24108   -2.48348
       H   -18.74571   10.68796  -11.67066
       O   -19.26393   11.01433  -12.39001
      H1   -20.11491   11.22110  -11.99365
       H   -15.70920   16.95921  -13.26248
       O   -14.96912   17.63402  -13.22764
      H1   -15.33152   18.48706  -12.85069
       H   -14.18452    8.85778  -11.90345
       O   -15.10457    8.73310  -12.18114
      H1   -15.46210    9.60125  -12.33644
       H   -18.87817    7.50597   -7.44569
       O   -19.05033    6.56461   -7.13839
      H1   -19.58101    6.21628   -7.87173
       H   -10.93430   11.35820   -5.74619
       O   -11.57594   11.09570   -5.09338
      H1   -11.19298   10.22163   -4.85333
       H   -19.46533    8.38511  -14.65064
       O   -18.79632    8.67461  -13.93757
      H1   -19.10872    9.53104  -13.57741
       H   -18.24334   16.57130   -0.76488
       O   -18.03566   15.72025   -0.32553
      H1   -18.85710   15.32079    0.02525
       H   -18.07548    8.59137   -0.72008
       O   -17.42477    9.22912   -1.16007
      H1   -17.75275   10.08391   -0.94951
       H   -18.59637   11.69894   -5.19312
       O   -19.38426   12.29480   -5.32504
      H1   -18.96694   13.01757   -5.85276
       H   -15.06311    8.16002   -8.57812
       O   -15.19723    9.05386   -8.93127
      H1   -15.65866    8.99976   -9.81730
       H   -16.71766   15.03652   -8.60943
       O   -17.31380   14.25732   -8.47323
      H1   -16.86258   13.68999   -7.85293

