150
frame 6 | Written by MDAnalysis XYZWriter (release 2.4.3)
       H   -15.39746   12.94204   18.54710
       O   -15.30293   12.17602   17.99018
      H1   -15.02134   11.45720   18.58035
       H   -16.71293    7.18434   10.17900
       O   -16.19561    7.52403   10.95603
      H1   -16.89826    7.70294   11.56560
       H   -17.00151    4.90211   18.60368
       O   -16.24081    5.38003   18.32262
      H1   -15.99241    6.04528   18.99090
       H   -10.86474    6.02511   13.26361
       O   -11.25745    6.13936   14.09141
      H1   -11.56410    7.05877   14.09528
       H    -7.85093   13.14784   14.67109
       O    -8.04224   12.91783   15.64405
      H1    -8.69385   13.52664   15.85631
       H    -9.20630   10.47470   14.10032
       O    -9.64111   10.91310   14.82394
      H1    -8.98943   11.51498   15.22335
       H   -10.92580   13.71007   14.69536
       O   -11.27618   12.99129   14.17485
      H1   -10.66924   12.24278   14.37289
       H   -12.93712    2.92624   13.50413
       O   -12.45003    2.14026   13.17837
      H1   -12.14311    1.70028   13.97730
       H    -9.77782   14.54273   18.87332
       O   -10.20199   15.16332   18.24330
      H1   -10.19927   15.92148   18.87339
       H   -12.42369    1.41045   18.42218
       O   -11.54630    1.58352   18.07498
      H1   -10.86301    1.20258   18.58379
       H   -13.84284   12.15799   16.34119
       O   -13.55093   11.48170   15.76358
      H1   -12.84180   12.04599   15.35197
       H   -13.66434    4.03738   15.32323
       O   -13.43492    4.36248   14.41766
      H1   -12.65532    4.96767   14.46411
       H   -13.78847   14.97888   17.32045
       O   -14.42082   15.14018   16.59536
      H1   -14.38969   16.14204   16.50545
       H   -19.17230    5.58448   15.61100
       O   -18.93509    4.61468   15.53648
      H1   -18.38315    4.54079   14.73496
       H   -17.28364    2.36617   13.94978
       O   -17.18438    3.19542   13.49478
      H1   -16.59804    3.10860   12.74937
       H   -16.29991    6.90569   16.32273
       O   -15.48288    7.29580   15.87563
      H1   -15.60822    6.98687   14.96423
       H   -11.55195   10.35119   17.63325
       O   -12.15397   10.93108   18.11207
      H1   -12.75642   11.13987   17.38534
       H   -13.58341    9.96041   18.91143
       O   -14.41165    9.87920   19.42035
      H1   -14.73011    8.92294   19.39198
       H   -14.66930   10.43331   14.86092
       O   -15.14402    9.81220   14.31597
      H1   -15.39714    9.04149   14.91886
       H   -13.15019   13.97809   13.84189
       O   -13.60898   14.84691   13.94212
      H1   -13.79831   14.79674   14.90270
       H   -13.42591    8.72902   14.83193
       O   -12.52411    8.43940   14.72817
      H1   -12.27843    8.03169   15.56926
       H   -16.92747   11.05547   14.67839
       O   -17.84197   11.02164   14.88067
      H1   -18.05299   11.35661   15.75193
       H   -14.49191   10.43427   12.44341
       O   -13.92796   10.63423   11.70449
      H1   -14.42406   11.37418   11.32832
       H    -7.45744   10.99461   18.09809
       O    -8.42978   10.83124   18.34952
      H1    -8.45193   10.54185   19.24516
       H   -18.38694    9.80584   18.28554
       O   -18.94274    8.99291   18.33712
      H1   -19.80503    9.30533   17.99304
       H   -17.55460   13.17101   12.73683
       O   -17.35704   13.58258   13.60464
      H1   -17.50425   12.83210   14.22813
       H   -14.45111    1.90170   18.55795
       O   -14.32970    1.02943   18.17469
      H1   -14.58582    0.41881   18.90049
       H    -9.86475   16.00908   15.10116
       O   -10.06824   15.16372   15.59098
      H1   -10.14134   15.40086   16.52440
       H   -12.68517   12.64798   11.80967
       O   -12.77661   13.57829   11.61010
      H1   -12.97952   13.66069   10.69948
       H   -13.60843   17.30523   18.83271
       O   -13.81683   16.69145   19.49346
      H1   -14.40071   17.02074   20.17180
       H   -13.65806    6.87694   16.69865
       O   -12.85679    6.91441   17.24388
      H1   -12.43016    6.06233   17.12362
       H   -12.02585   12.85877   18.34018
       O   -12.55425   13.65436   18.46588
      H1   -11.88008   14.33529   18.41396
       H   -15.14134    6.90403   12.62594
       O   -15.43652    6.37759   13.40216
      H1   -14.75417    5.73310   13.58267
       H    -9.71759    7.91419   16.22371
       O    -9.40306    6.99979   16.14756
      H1   -10.02239    6.53421   15.63802
       H    -7.85796    7.21001   14.74028
       O    -7.04005    7.35106   14.24323
      H1    -6.41545    7.66039   14.93005
       H   -10.13724    9.72495   16.09566
       O   -10.39373    9.26772   16.89039
      H1    -9.75493    9.70977   17.48482
       H    -6.65467    5.29118   18.34534
       O    -7.17956    5.04813   19.08274
      H1    -7.00603    4.07273   19.22929
       H   -16.18631   15.26502   16.86660
       O   -17.11379   15.35509   17.19030
      H1   -17.42893   16.15180   16.69940
       H   -14.94663    4.23069   18.37663
       O   -14.13969    3.75278   18.66348
      H1   -13.36767    4.09016   18.21930
       H   -19.47838    7.64159   11.66841
       O   -19.13824    8.41017   12.16435
      H1   -19.47871    8.35698   13.02336
       H   -18.54167   14.77189   14.29760
       O   -18.94261   15.64555   14.26452
      H1   -18.56357   16.06626   13.43746
       H   -16.98359   11.99769   18.13134
       O   -17.89542   11.73895   17.85182
      H1   -18.54149   12.34608   18.27089
       H   -14.87317   15.22699   19.17124
       O   -15.59654   14.58113   19.22447
      H1   -16.31048   15.02681   18.68879
       H   -14.13662    7.17390   18.63821
       O   -14.65940    7.24360   19.41784
      H1   -13.95453    7.32790   20.11862
       H   -16.10932    4.48942   16.36790
       O   -15.95786    3.62188   16.01664
      H1   -16.55223    3.58665   15.27063
       H   -11.38964    3.40628   17.68752
       O   -11.71489    4.35057   17.63119
      H1   -11.48330    4.67597   18.56201
       H    -9.67005   12.80845   20.23477
       O    -9.06325   13.24058   19.64253
      H1    -8.78605   12.50386   19.03623
       H   -17.22543    1.92186   17.22380
       O   -16.79325    1.11440   17.13885
      H1   -15.95575    1.14956   17.55222
       H    -8.43948    6.28622   19.17475
       O    -9.12462    6.99439   19.28952
      H1    -9.34479    7.06535   18.32366
       H   -18.78482    5.21370   18.92731
       O   -18.68945    4.31010   18.50218
      H1   -18.66569    4.49260   17.55647

