150
frame 10 | Written by MDAnalysis XYZWriter (release 2.4.3)
       H     3.85361   -4.82434   -5.01299
       O     4.66661   -5.24060   -4.70124
      H1     5.05590   -5.41305   -5.55659
       H     7.40056   -6.79891  -12.44548
       O     7.97161   -5.96639  -12.66650
      H1     8.50506   -5.87198  -11.88938
       H    10.25405   -2.69711   -2.31230
       O    11.10451   -2.43706   -2.76598
      H1    11.79274   -2.42806   -2.03024
       H     1.59808   -8.04298   -3.66101
       O     2.44573   -7.62807   -3.50543
      H1     2.68161   -7.41826   -4.41493
       H    11.40088   -9.01526  -11.07593
       O    11.66027   -8.40811  -10.32804
      H1    12.21536   -7.64469  -10.60692
       H    11.88274   -7.50718   -8.61063
       O    12.46570   -7.09446   -7.90301
      H1    13.07739   -7.74920   -7.62553
       H     8.27411   -8.36440  -11.58984
       O     7.76511   -8.20832  -10.72522
      H1     8.35684   -7.56657  -10.33840
       H     9.27849  -10.54662   -4.45652
       O     9.82639  -11.33175   -4.46272
      H1    10.30903  -11.19436   -5.28839
       H     6.75676   -6.01873    0.53516
       O     7.00921   -5.55254   -0.30127
      H1     7.18254   -4.69430    0.07904
       H     3.63126   -9.24533   -9.02343
       O     3.49889   -8.36799   -9.42908
      H1     4.30871   -7.90944   -9.26532
       H     4.18791   -5.05489   -2.84044
       O     3.61876   -5.40765   -2.14561
      H1     3.10115   -6.06995   -2.59887
       H     5.47817   -3.38426   -8.30527
       O     4.56701   -3.30350   -7.98306
      H1     4.06102   -2.64440   -8.46281
       H     8.56778   -9.75805   -0.77830
       O     8.67329  -10.59406   -0.30753
      H1     8.91638  -11.24035   -0.95830
       H    12.71539   -6.30654   -0.92815
       O    13.24928   -5.48264   -0.87349
      H1    13.73803   -5.56999   -0.07771
       H     6.87617   -6.78454   -7.14666
       O     6.16005   -6.19885   -6.95183
      H1     6.47925   -5.35938   -7.32582
       H    11.53086   -4.36769  -10.02280
       O    11.50383   -4.73703  -10.91300
      H1    11.13881   -3.96759  -11.39119
       H    13.51164  -10.83442   -5.78256
       O    13.72395  -11.74941   -6.04181
      H1    14.38111  -11.73117   -6.73240
       H    11.77291   -8.10457   -1.03294
       O    11.32535   -7.23568   -0.90998
      H1    11.13470   -7.00867   -1.82452
       H     8.66357   -5.53907   -4.52166
       O     9.08410   -6.30840   -4.83868
      H1     9.00373   -6.22839   -5.76968
       H     7.72879   -3.40675   -8.13223
       O     7.18820   -4.01880   -8.59002
      H1     7.03983   -3.59435   -9.44527
       H     4.60064   -8.07378   -6.41550
       O     3.68820   -7.96851   -6.04411
      H1     3.11908   -8.41204   -6.65988
       H     9.22321  -10.91999   -8.15836
       O     9.94167  -11.50107   -7.96402
      H1    10.16263  -11.98859   -8.76772
       H    12.67925   -9.80782   -4.29336
       O    12.92117   -9.27222   -5.09374
      H1    13.84237   -8.97342   -4.85548
       H     7.01554   -0.17890   -5.49374
       O     7.83217   -0.69027   -5.40415
      H1     8.24165   -0.26713   -4.59830
       H    15.77622   -8.11583   -3.81906
       O    15.66296   -8.13637   -4.76810
      H1    15.18155   -7.29835   -5.01720
       H    11.44892   -4.88366   -0.10939
       O    10.85827   -4.61180    0.60928
      H1    10.10186   -5.24577    0.64774
       H     9.39051   -8.06586   -7.16531
       O     8.99253   -7.21326   -7.48912
      H1     9.41222   -6.96539   -8.29951
       H    13.41512   -5.76972   -8.35055
       O    14.23864   -5.39867   -8.77577
      H1    14.25750   -4.42554   -8.66416
       H     6.33792   -4.18770   -1.83733
       O     6.36876   -3.29087   -2.24780
      H1     6.79819   -3.42086   -3.10463
       H    12.32102   -3.54149   -6.08394
       O    12.89576   -3.02655   -6.64383
      H1    12.65191   -2.06514   -6.55585
       H    10.38033   -1.59082  -11.08413
       O     9.74577   -2.24709  -11.45644
      H1     8.90573   -2.20294  -10.94321
       H     7.17792  -10.72060   -8.89110
       O     7.79959   -9.98680   -8.72723
      H1     7.86856   -9.47405   -9.51586
       H     9.08233   -1.20390   -8.31893
       O     8.82218   -2.03037   -7.83414
      H1     8.80257   -1.75014   -6.90328
       H    11.99453   -3.40833   -8.00640
       O    11.37007   -3.45726   -8.73118
      H1    10.58253   -3.00719   -8.44396
       H    14.06627   -5.70691   -2.74843
       O    14.11287   -5.56503   -3.74416
      H1    13.27842   -5.13586   -3.91341
       H     5.09140   -8.33732   -1.49274
       O     4.62165   -7.71283   -0.91199
      H1     4.44982   -6.92651   -1.48715
       H     4.29505   -2.16541   -6.29663
       O     4.68281   -1.47473   -5.69527
      H1     4.01015   -1.11586   -5.03380
       H     9.53639   -7.48730   -0.40460
       O     8.58467   -7.72299   -0.38826
      H1     8.14463   -6.90217   -0.61010
       H     4.43426   -9.58099   -4.67963
       O     4.00691  -10.10134   -3.98737
      H1     3.32525   -9.46846   -3.75252
       H    11.42498   -9.10588   -5.90408
       O    10.68308   -9.25693   -6.51796
      H1    10.80470  -10.16152   -6.84718
       H     6.68526   -1.51068  -10.27730
       O     7.24980   -2.23255  -10.58720
      H1     6.97557   -2.46208  -11.50401
       H    11.29759   -3.79873   -3.78055
       O    11.55589   -4.58534   -4.32922
      H1    10.80632   -5.23848   -4.26400
       H    10.08352   -5.51136  -10.15427
       O     9.16167   -5.76598   -9.89497
      H1     8.76185   -4.95275   -9.63100
       H     6.95406   -9.43842   -7.11390
       O     6.47395   -9.04335   -6.41077
      H1     6.95025   -9.38685   -5.65634
       H     8.23493   -8.69392   -3.73696
       O     7.73377   -9.48191   -4.10023
      H1     7.16221   -9.85027   -3.39412
       H     5.62530   -6.44638   -8.62617
       O     5.45555   -6.67535   -9.59639
      H1     6.21477   -7.16918   -9.83979
       H    12.39451  -11.36809   -2.61305
       O    11.96908  -10.52822   -2.86088
      H1    11.11516  -10.68948   -3.28056
       H     6.62450   -4.54642   -4.80342
       O     7.39810   -3.94749   -4.72181
      H1     7.16573   -3.05949   -5.09211
       H    11.52841   -7.93992   -4.24861
       O    10.90151   -7.73193   -3.56118
      H1    10.24734   -7.26532   -4.05549
       H     5.99929  -11.27659   -1.91282
       O     5.94986  -10.40385   -2.22625
      H1     5.11469  -10.36407   -2.71070

