150
frame 0 | Written by MDAnalysis XYZWriter (release 2.4.3)
       H    -9.33150    7.77100  -12.40631
       O    -8.74491    7.58893  -13.22483
      H1    -7.95544    8.18700  -13.18488
       H   -13.66772   13.23068  -18.26744
       O   -13.93545   12.28448  -18.45386
      H1   -13.16092   11.98115  -18.96341
       H   -12.04767    9.45324  -14.85044
       O   -12.86089    9.62710  -14.33936
      H1   -13.42519    8.97877  -14.77971
       H   -16.85426   16.70142  -17.53383
       O   -16.39067   16.22605  -18.25431
      H1   -15.51706   16.60968  -18.15242
       H    -5.29360   16.60209  -17.95610
       O    -5.78925   15.97455  -18.59870
      H1    -6.64082   16.34986  -18.34808
       H   -10.33603   18.16305  -18.45438
       O   -10.39392   19.02802  -18.89284
      H1   -11.30689   18.96291  -19.25521
       H    -8.31832   13.24396  -14.16604
       O    -8.53619   12.32181  -14.37791
      H1    -9.52360   12.38753  -14.36284
       H    -6.78412    5.59513  -15.98458
       O    -6.70135    6.48630  -15.59747
      H1    -6.58299    6.26199  -14.64387
       H    -4.13766   18.50266  -17.83078
       O    -4.60144   18.00445  -17.12568
      H1    -4.80073   18.75623  -16.53795
       H    -4.40309    7.96353  -14.52769
       O    -4.95473    8.70014  -14.72462
      H1    -5.46531    8.27469  -15.35446
       H   -13.04118    9.43038  -12.27799
       O   -12.85518    9.03725  -11.44792
      H1   -12.59897    9.83858  -10.92188
       H    -5.75596   14.20145  -13.76127
       O    -4.80936   14.15088  -13.92115
      H1    -4.57930   13.24924  -14.13760
       H   -10.93351    7.73047  -15.70112
       O   -10.66261    8.61074  -15.93461
      H1   -11.45232    8.92064  -16.33121
       H    -1.26375   10.94219  -18.95071
       O    -2.09198   11.08161  -18.47514
      H1    -2.01391   11.93934  -17.98745
       H    -2.24729   10.21566  -17.02712
       O    -2.41414    9.87963  -16.08697
      H1    -3.38305    9.79328  -16.13913
       H    -4.81483    9.84341  -17.74710
       O    -5.08568   10.67961  -17.36209
      H1    -6.02052   10.46787  -17.08337
       H   -12.80818   18.27681  -15.40088
       O   -13.25311   18.17880  -16.26679
      H1   -12.49887   17.94567  -16.84044
       H    -9.16182    8.40654  -16.40581
       O    -8.25897    8.23530  -16.69230
      H1    -7.94169    7.63358  -15.98452
       H    -8.06625   10.14749  -16.27784
       O    -7.78412   11.05821  -16.59962
      H1    -8.02747   11.60931  -15.78686
       H   -12.51126    9.48665  -19.21909
       O   -12.08577    9.64024  -18.35939
      H1   -11.19722    9.83804  -18.63812
       H   -15.10633   11.97348  -14.98883
       O   -15.90002   11.82448  -14.39102
      H1   -15.55556   12.01413  -13.50444
       H   -17.13938   12.78515  -17.52544
       O   -17.31093   12.17158  -18.21679
      H1   -16.40637   12.04515  -18.60588
       H    -9.45065   16.25894  -11.72339
       O    -9.39144   15.29948  -11.58145
      H1    -8.87648   15.18459  -10.75038
       H   -13.56400   15.50860  -19.06174
       O   -13.39454   15.01548  -18.27925
      H1   -12.58659   15.39011  -17.87499
       H    -8.37298   19.54305  -15.88773
       O    -7.52008   19.46932  -15.34509
      H1    -7.55163   18.59298  -14.96029
       H    -6.41210    7.54726  -18.93158
       O    -7.28824    7.11786  -18.94515
      H1    -7.67335    7.41267  -18.08617
       H    -7.72905   15.15031  -13.02673
       O    -7.43629   14.46268  -13.67861
      H1    -7.22168   14.92735  -14.49826
       H   -10.41295   15.81064  -18.31767
       O   -10.73690   16.45631  -17.69205
      H1    -9.93473   16.61127  -17.15268
       H    -7.37600   18.03319  -17.22972
       O    -7.95513   17.34079  -17.59095
      H1    -7.94884   16.60729  -16.88933
       H    -3.03861   11.88471  -16.53089
       O    -2.70154   12.81332  -16.65105
      H1    -3.55024   13.24490  -16.75516
       H   -11.76926   15.01694  -12.30026
       O   -12.27434   15.24697  -13.13154
      H1   -12.94156   15.83894  -12.79219
       H   -12.11282   12.10356  -14.31287
       O   -11.27265   12.52655  -13.99721
      H1   -11.36400   13.50356  -14.08520
       H   -13.72502   10.88521  -15.61434
       O   -13.72723   11.77873  -15.91269
      H1   -13.79844   11.58085  -16.87186
       H    -7.63901    4.23400  -17.56304
       O    -6.65562    4.43999  -17.72098
      H1    -6.71403    5.26877  -18.24149
       H    -7.01921   14.10451  -16.73919
       O    -7.81946   14.72033  -16.67973
      H1    -8.33430   14.29705  -17.37453
       H   -11.13947    5.69167  -15.04203
       O   -11.37842    6.39267  -14.43863
      H1   -10.58595    6.64221  -13.93236
       H    -7.43640   11.72769  -12.70872
       O    -7.06454   11.42519  -11.89371
      H1    -6.15262   11.28421  -12.15906
       H    -3.80210   10.48974  -12.74143
       O    -4.67896   10.90714  -12.97528
      H1    -4.93590   10.18778  -13.55451
       H    -8.46646   11.98541  -18.02093
       O    -8.34758   12.40365  -18.90444
      H1    -9.31898   12.67950  -19.10642
       H    -9.70094    3.59471  -16.83115
       O    -9.35920    4.05399  -17.60452
      H1    -9.95428    4.83302  -17.58537
       H   -11.75685   12.79923  -16.47068
       O   -11.23258   12.72510  -17.30118
      H1   -11.34152   13.55719  -17.71510
       H   -11.87073    5.96117  -17.91094
       O   -11.02244    6.23339  -17.46556
      H1   -10.61352    6.72808  -18.13565
       H    -6.84908   17.24954  -12.96093
       O    -7.46421   17.13284  -13.74737
      H1    -8.26080   17.59575  -13.46280
       H   -16.92455   10.18321  -17.86764
       O   -16.10134    9.66285  -17.84921
      H1   -15.98049    9.53877  -16.84747
       H    -4.10235    7.63224  -18.63276
       O    -4.80126    7.77397  -17.99068
      H1    -4.85641    6.94738  -17.45321
       H    -4.07004   15.93882  -14.43764
       O    -3.59605   16.76400  -14.70575
      H1    -4.07588   16.84014  -15.58888
       H    -3.34501   15.27450  -18.64743
       O    -2.55930   14.75977  -18.55285
      H1    -2.50684   14.40551  -17.66398
       H    -5.50431   14.30452  -17.90146
       O    -5.41438   13.65077  -17.18592
      H1    -5.48284   12.82334  -17.67056
       H   -15.99062   10.14064  -14.72218
       O   -15.63997    9.30124  -15.11351
      H1   -16.27883    8.68354  -14.80460
       H   -17.67342   14.31039  -16.15081
       O   -16.76270   14.18771  -16.48309
      H1   -16.85950   14.87091  -17.23263

