150
frame 0 | Written by MDAnalysis XYZWriter (release 2.4.3)
       H    -6.51489   13.50935   16.22719
       O    -5.99279   14.23564   16.58415
      H1    -6.56659   14.69801   17.16754
       H    -6.70709   11.79192   14.44923
       O    -7.02731   12.02691   15.32440
      H1    -7.92115   11.64999   15.23399
       H    -9.93888   13.22973   15.38106
       O    -9.46397   13.68788   14.71454
      H1    -9.12051   14.47646   15.09929
       H   -11.26422   19.48376   19.07147
       O   -10.79505   18.72424   18.81842
      H1   -10.13414   18.95621   18.14389
       H   -10.04058   16.30994   15.97738
       O    -9.09692   16.05188   15.98946
      H1    -8.79006   16.75467   15.38941
       H    -8.57629   19.71096    9.30964
       O    -8.51515   19.14091   10.09222
      H1    -7.59153   19.27424   10.36615
       H     0.70659   19.15664   12.79603
       O     1.18842   19.46248   13.58755
      H1     1.56531   18.60922   13.93143
       H   -11.01769   16.62754    9.46773
       O   -10.41792   17.02495    8.84218
      H1    -9.55903   17.07034    9.31356
       H    -1.47210   15.66171   19.57443
       O    -2.23755   16.16782   19.28034
      H1    -3.06658   15.81308   19.67234
       H    -5.93296   10.66617   10.08113
       O    -5.64315   11.54521   10.40460
      H1    -5.76661   11.57619   11.40117
       H   -12.13389   17.77288   17.68428
       O   -12.85454   17.47815   17.13061
      H1   -13.28935   18.34748   16.92508
       H    -8.06713   13.82250   12.97850
       O    -7.14079   13.90396   12.65308
      H1    -7.11671   14.06197   11.70313
       H   -10.70498   11.46904   17.28982
       O   -11.05020   12.29049   16.84688
      H1   -11.95004   12.01478   16.55934
       H   -12.82684   12.26931   12.31928
       O   -12.05983   12.90647   12.37696
      H1   -12.34694   13.64246   11.82852
       H   -10.89766   14.67125   14.47926
       O   -11.83581   14.91029   14.53318
      H1   -12.29898   14.15347   14.12227
       H    -2.75067   12.88495   19.06784
       O    -1.78223   12.92500   19.11103
      H1    -1.64394   12.02089   19.44412
       H     2.55944   13.72940   17.87418
       O     1.84519   14.26211   17.45089
      H1     1.77895   14.99604   18.05198
       H   -12.84414   17.82635   11.69232
       O   -13.21192   17.13863   11.06670
      H1   -13.72925   17.64667   10.43190
       H   -13.22447   17.61517   15.35846
       O   -13.33147   17.13556   14.52690
      H1   -12.79583   16.33882   14.60147
       H    -9.54516   12.61014   10.82021
       O    -9.92663   13.05068   10.02778
      H1    -9.22219   13.55430    9.65018
       H   -11.48838   13.36638   18.15797
       O   -11.76942   13.79872   18.98397
      H1   -11.08500   14.44925   19.20539
       H    -6.22807   16.81747   14.68077
       O    -6.53472   17.62985   15.08241
      H1    -5.94808   18.30994   14.67155
       H    -2.38495   16.69159   10.97961
       O    -2.49924   16.84918   10.06038
      H1    -1.93386   16.27626    9.51519
       H     0.58409   13.25034   17.13035
       O    -0.10352   12.54179   16.99134
      H1    -0.80339   12.73113   17.63963
       H     0.31633   17.05757   16.67610
       O     0.97075   16.99205   17.39516
      H1     1.81082   17.37011   17.03005
       H    -0.89298   13.46401   15.20706
       O    -1.23191   13.53858   14.33687
      H1    -0.89615   14.40964   14.09181
       H    -9.17310   10.67818   13.84449
       O    -9.29737   10.28388   14.72869
      H1    -8.60092    9.63248   14.88707
       H    -0.31935   14.62194   12.27236
       O     0.59554   14.81435   12.44685
      H1     0.84416   13.97402   12.86449
       H    -6.41097   17.32998   17.32319
       O    -5.94853   17.01156   18.08449
      H1    -5.44245   17.81166   18.32690
       H    -3.59168   16.08898   13.33921
       O    -2.74820   16.35828   12.96984
      H1    -2.19893   16.37841   13.76357
       H    -3.70239   19.68019   18.71288
       O    -4.56539   19.20037   18.78012
      H1    -4.54654   18.95040   19.72278
       H    -5.67359   10.41311   12.91457
       O    -5.62730   11.33429   13.06980
      H1    -4.67879   11.49542   13.23795
       H    -5.52826   19.81007   11.27437
       O    -5.66194   19.68244   10.35663
      H1    -4.94657   19.14750   10.04793
       H    -5.74637   14.76958   13.72204
       O    -5.18705   15.41275   14.17192
      H1    -5.30994   15.14243   15.11125
       H    -9.29566   18.17179   11.38366
       O    -9.49160   17.46109   12.03812
      H1   -10.39451   17.49093   12.20280
       H    -4.46266   16.64462   16.92396
       O    -3.56725   16.42087   16.71980
      H1    -3.14316   16.07627   17.54408
       H    -2.48353   12.36622   14.21565
       O    -2.95826   11.49197   14.32048
      H1    -3.51545   11.78052   15.11731
       H    -9.00921   18.00019   13.55582
       O    -8.93376   18.31884   14.46099
      H1    -8.04989   18.14780   14.76131
       H    -7.55378   13.90377    8.90127
       O    -7.21575   13.81382    9.78747
      H1    -6.76236   12.97459    9.79411
       H    -3.90079   17.35427    8.96977
       O    -4.57799   17.93303    8.56361
      H1    -4.32052   18.03392    7.65860
       H    -6.12761   17.02490    8.77659
       O    -7.06206   16.76089    8.80529
      H1    -6.94446   15.92033    9.31758
       H    -2.00473   19.22440   14.20264
       O    -2.46342   19.08034   13.34840
      H1    -2.55666   18.14339   13.31877
       H   -12.19550   18.13246   13.55582
       O   -11.87104   18.70817   12.79523
      H1   -11.87768   19.62973   13.04233
       H    -8.40143   14.92834   17.46188
       O    -8.29654   14.60351   18.35785
      H1    -9.09547   15.01945   18.74271
       H    -2.13643   16.91034   16.00765
       O    -1.27433   17.10418   15.64800
      H1    -1.17933   18.02352   15.87066
       H   -10.39956   10.50613   11.56981
       O   -10.10482   11.08542   12.27684
      H1   -10.86202   11.78068   12.39199
       H    -5.76012   10.49311   18.24170
       O    -5.15038   10.82994   17.49014
      H1    -5.69527   11.40237   16.96329
       H    -9.64567    9.05633   18.75406
       O    -9.24652    9.81737   18.26138
      H1    -8.59710   10.15981   18.91161
       H    -3.74335    9.69433   17.08084
       O    -3.21343    8.90119   17.32154
      H1    -2.39846    8.95862   16.79856
       H    -4.56978   13.83730   18.05514
       O    -4.46208   13.73897   19.03527
      H1    -5.23308   13.29475   19.42244

