150
frame 10 | Written by MDAnalysis XYZWriter (release 2.4.3)
       H    -3.86023   -3.02480  -11.79592
       O    -3.16625   -3.49748  -11.31500
      H1    -2.34701   -3.04433  -11.61429
       H     3.65101    4.99639  -11.29180
       O     3.52563    4.04919  -11.02473
      H1     4.06488    4.00113  -10.19393
       H    -4.14102   -0.59465   -6.08739
       O    -3.82826    0.25076   -6.31653
      H1    -3.02203    0.38570   -5.78997
       H     0.69174    4.86436   -8.03803
       O     1.49812    4.92167   -8.54885
      H1     1.29458    4.76503   -9.45799
       H     1.72477    1.44648   -4.53104
       O     1.57378    2.41793   -4.58004
      H1     0.74888    2.54126   -5.02815
       H     3.56370   -4.54507   -9.35873
       O     2.80280   -4.72997   -9.86033
      H1     2.87519   -5.61464  -10.29161
       H    -0.47894   -3.48050   -8.64754
       O    -0.53423   -2.62324   -9.01360
      H1    -1.27994   -2.18991   -8.58367
       H     0.12982    6.47610  -14.05118
       O    -0.39723    6.48226  -13.23587
      H1     0.17322    6.05149  -12.58157
       H     1.33415   -2.67194   -5.83078
       O     0.91151   -1.78744   -5.76936
      H1     1.01380   -1.37730   -6.62546
       H     1.43034   -4.97542   -8.80064
       O     0.55842   -4.99462   -8.31705
      H1     0.84211   -5.05005   -7.42838
       H     5.47817   -3.38426   -8.30527
       O     4.56701   -3.30350   -7.98306
      H1     4.06102   -2.64440   -8.46281
       H     0.97953    2.85897  -14.28004
       O     0.39854    3.52299  -13.96135
      H1    -0.31631    2.97726  -13.56679
       H    -2.30174   -0.95896  -15.13668
       O    -2.97789   -1.68183  -15.04870
      H1    -3.78846   -1.16389  -15.10288
       H     3.02010   -0.42648   -3.36068
       O     2.43056   -0.04042   -4.03355
      H1     1.88384   -0.79426   -4.41276
       H     5.40294    3.76473   -8.45969
       O     4.61912    4.28064   -8.63388
      H1     4.05566    4.13139   -7.87077
       H    -1.00306    1.81996   -7.96861
       O    -0.73995    1.62627   -8.88952
      H1    -1.42258    0.98905   -9.22162
       H     5.32408    0.05824   -8.84453
       O     5.58115   -0.33385   -9.71309
      H1     4.80952   -0.15947  -10.30328
       H     4.56037    2.54616  -13.91391
       O     4.25741    1.62026  -14.02163
      H1     5.05206    1.19388  -14.41765
       H     1.41919    6.60991   -8.64668
       O     1.70258    7.55042   -8.78509
      H1     1.23612    8.12017   -8.14523
       H     3.60786    7.01435  -11.25961
       O     3.79301    6.47366  -12.05692
      H1     2.99375    6.38410  -12.56414
       H    -0.80854   -2.72186   -5.75099
       O    -1.57056   -2.86910   -5.19244
      H1    -2.33261   -2.59902   -5.67454
       H     2.21403   -0.72525  -14.11565
       O     2.76466   -0.87608  -14.93152
      H1     2.75600   -0.03152  -15.38083
       H     4.33022    4.98007  -13.84478
       O     4.92624    4.43175  -14.31678
      H1     5.77375    4.75995  -14.10326
       H     2.51300   -0.92447  -11.29740
       O     3.04718   -1.74143  -11.40597
      H1     2.71401   -2.31187  -10.72493
       H     2.64724    5.69108  -15.37225
       O     1.94939    5.68565  -14.70308
      H1     1.37445    4.84145  -14.82923
       H     1.69837    4.48294  -11.16906
       O     0.87917    4.99246  -11.19272
      H1     0.43531    4.52000  -11.92768
       H     0.96148    1.23713   -9.58155
       O     1.62307    0.77111  -10.08320
      H1     2.37540    1.37435  -10.29133
       H     7.52785   -0.15799  -14.36639
       O     6.58225    0.05448  -14.56785
      H1     6.71360    0.42876  -15.48115
       H     7.40809    2.50470   -7.50856
       O     7.18314    3.24292   -8.09464
      H1     7.82858    3.93653   -7.87320
       H     3.97159    1.17605  -12.10638
       O     4.02079    1.37201  -11.13865
      H1     4.13155    2.35557  -11.14863
       H    -2.94341    4.84531   -9.76100
       O    -3.27833    4.83297   -8.86948
      H1    -3.79848    5.57601   -8.72971
       H     6.86509    0.88307  -10.26152
       O     7.49113    1.62111  -10.33363
      H1     7.22248    2.24930   -9.66245
       H    -1.74555    1.56011  -12.66714
       O    -1.18246    1.38113  -13.41743
      H1    -0.55322    0.66817  -13.04333
       H     5.00816    3.49840   -5.32021
       O     4.15388    3.30700   -5.80441
      H1     3.47134    3.08861   -5.12540
       H     1.11741    0.43325  -11.82841
       O     0.82094   -0.10885  -12.61013
      H1     0.53329   -0.99935  -12.28056
       H    -1.90522    2.27081  -10.42712
       O    -2.40448    1.77158  -11.09904
      H1    -3.33476    1.99012  -11.12660
       H    -2.81755    0.16295   -8.18631
       O    -2.76300   -0.46752   -8.86860
      H1    -3.59707   -0.90169   -8.97407
       H     0.18912    0.25779  -16.08134
       O    -0.74873    0.22138  -15.86190
      H1    -0.75865    0.74386  -15.07748
       H     0.32548   -1.69954  -16.06560
       O     0.32905   -2.55717  -16.58271
      H1    -0.51828   -2.92762  -16.44168
       H     4.29505   -2.16541   -6.29663
       O     4.68281   -1.47473   -5.69527
      H1     4.01015   -1.11586   -5.03380
       H    -0.65843   -2.35916  -11.05169
       O    -0.87401   -2.32616  -11.98230
      H1    -0.44692   -3.12854  -12.28364
       H     3.03248    1.99669  -15.28041
       O     2.31410    2.02599  -15.94264
      H1     2.50842    2.70130  -16.59247
       H    -1.14685    6.00888   -6.65457
       O    -0.96590    5.19002   -7.13591
      H1    -1.74110    5.16825   -7.70038
       H     6.68526   -1.51068  -10.27730
       O     7.24980   -2.23255  -10.58720
      H1     6.97557   -2.46208  -11.50401
       H     3.45274   -2.40722  -14.40605
       O     3.61649   -3.15214  -13.75978
      H1     3.67250   -2.65431  -12.95471
       H     0.15265   -5.33489  -13.22709
       O     0.33235   -4.40369  -13.53825
      H1     0.76871   -4.66860  -14.35605
       H     4.08284    6.05304   -8.31663
       O     4.03987    6.79633   -7.75102
      H1     3.26068    7.28335   -8.07390
       H     4.89522    0.06586   -6.63184
       O     5.09951    0.79407   -7.28111
      H1     4.59081    1.55886   -7.04506
       H    -1.38792    2.39981   -5.30625
       O    -1.10521    2.56536   -6.25201
      H1    -1.28650    3.46356   -6.39969
       H     2.26931   -0.51260   -8.48480
       O     2.06980   -1.36127   -8.12220
      H1     1.39961   -1.66689   -8.73939

