150
frame 2 | Written by MDAnalysis XYZWriter (release 2.4.3)
       H   -18.47052    0.11238   10.59607
       O   -19.39929    0.16197   10.88540
      H1   -19.35398    0.97210   11.39551
       H   -16.74619    5.40156    7.63299
       O   -16.02034    4.70649    7.63241
      H1   -15.49197    4.96343    8.40494
       H   -13.66558    1.72874    4.28155
       O   -14.02406    1.02847    3.65007
      H1   -14.99380    0.98491    3.83962
       H   -13.79233    3.51672   12.64410
       O   -13.98660    2.51953   12.71267
      H1   -13.44532    2.28728   13.45389
       H   -16.94504    3.22718    8.17417
       O   -17.43205    2.39215    8.14742
      H1   -18.33566    2.69643    7.92387
       H   -15.45394    5.52649   10.29642
       O   -14.82398    4.91814    9.95308
      H1   -14.90317    4.26157   10.63089
       H   -19.13663    1.55499    4.57662
       O   -19.34256    1.24930    3.69886
      H1   -18.64169    1.55698    3.06935
       H    -9.91695    6.63847    4.83251
       O    -9.02478    6.51718    4.43997
      H1    -8.46052    6.47383    5.24875
       H   -11.75995    3.90108    6.53819
       O   -11.14932    4.58298    6.79525
      H1   -11.21190    4.59523    7.79070
       H   -17.14771    2.43372    3.77561
       O   -16.83027    2.30336    4.72678
      H1   -17.32558    2.95993    5.25252
       H   -19.62321    7.20309    5.33564
       O   -19.10874    6.41340    4.95250
      H1   -18.68381    6.95101    4.19659
       H   -11.44264    7.22713    6.82831
       O   -10.93473    7.95436    6.40138
      H1   -11.61322    8.46200    5.88685
       H   -11.10780    1.61583    3.01224
       O   -11.43613    2.13285    2.23246
      H1   -11.05104    1.66942    1.49249
       H   -13.92100   -0.79496    3.00346
       O   -14.21753   -1.44395    2.36936
      H1   -14.38637   -2.28517    2.79193
       H   -15.45288    1.24577   12.28024
       O   -16.04105    0.75562   12.78258
      H1   -16.01678   -0.10362   12.28626
       H   -11.18429    0.03250    4.69829
       O   -10.62734    0.81457    4.69418
      H1    -9.69947    0.52359    4.72502
       H   -16.18909   -1.38973   -0.00147
       O   -16.42632   -0.90328    0.81959
      H1   -15.73952   -1.21309    1.46723
       H   -16.90031    0.84476    9.30036
       O   -16.73489    0.29832   10.04872
      H1   -16.67978   -0.63050    9.75108
       H   -11.90580   -2.27471    4.43453
       O   -12.14571   -1.39826    4.46747
      H1   -13.00747   -1.57493    4.80877
       H    -8.96709   -2.27108    6.30427
       O    -9.64587   -1.60017    6.48040
      H1   -10.20469   -1.70389    5.68702
       H   -14.40264    1.14391   10.13826
       O   -13.92601    1.40894    9.34772
      H1   -13.94448    0.59746    8.77553
       H   -12.40983    7.54626    4.09174
       O   -12.07530    6.63744    4.18580
      H1   -12.63734    6.25120    4.96000
       H   -18.31833    7.61387    2.10409
       O   -17.85099    7.77180    2.93558
      H1   -16.95855    7.39212    2.84793
       H   -14.27326    1.77834    1.52800
       O   -14.94460    2.00215    0.87150
      H1   -15.11555    1.08722    0.57493
       H   -14.24425   -5.64173    4.68966
       O   -14.82465   -4.93422    4.89082
      H1   -14.29216   -4.29007    5.42952
       H   -17.17620   -1.18946    7.99363
       O   -16.49091   -1.74522    8.36433
      H1   -15.66324   -1.24022    8.33990
       H   -10.78541    1.33688    6.35269
       O   -10.78963    1.39899    7.32193
      H1   -10.01591    1.96146    7.61603
       H   -13.11256   -1.21302    8.21523
       O   -13.61190   -0.49911    7.65647
      H1   -12.89858   -0.03781    7.19770
       H   -13.92521   -2.06778   11.22191
       O   -14.51740   -2.13029   10.44895
      H1   -15.38002   -2.05012   10.88940
       H   -10.89802    2.96269    9.37171
       O   -11.57439    3.64464    9.47307
      H1   -12.35050    3.05274    9.23812
       H   -19.57904   -2.15420    7.71729
       O   -19.17789   -1.26418    7.58972
      H1   -18.78259   -1.32930    6.67140
       H    -7.75469   -0.05006    5.26222
       O    -8.18804    0.09912    4.39810
      H1    -7.79697    0.79601    3.86889
       H   -11.53454    5.45813    2.97905
       O   -11.05667    4.94151    2.28595
      H1   -11.32059    4.01002    2.31204
       H   -11.94701   -3.26591    1.25372
       O   -11.67961   -2.33785    1.23724
      H1   -12.43082   -1.82962    1.61742
       H   -17.17638   -3.37777    4.61087
       O   -17.60383   -3.09884    3.77674
      H1   -16.97931   -3.37587    3.06323
       H   -17.37973    0.29254    5.30487
       O   -17.36779   -0.66815    5.43494
      H1   -17.55777   -1.15535    4.62549
       H   -18.07418    3.18915    1.83727
       O   -17.45780    2.50875    2.16580
      H1   -16.93161    2.13801    1.47482
       H   -19.65491   -0.46955    2.52093
       O   -19.30426   -0.74261    1.67096
      H1   -18.41378   -0.39177    1.56239
       H   -17.47260    7.44712    6.88782
       O   -17.81820    6.66879    7.27959
      H1   -18.35511    6.30255    6.55585
       H   -14.28402    2.35815    6.06038
       O   -13.54884    2.83055    5.63737
      H1   -13.79589    3.78685    5.43446
       H   -14.60994    7.10251    2.61784
       O   -15.30011    6.54881    3.02306
      H1   -15.37793    5.77753    2.45795
       H    -7.26283    0.74574    7.45643
       O    -7.52362   -0.06210    6.96399
      H1    -8.48794   -0.23062    6.99093
       H   -14.95124    5.30543    6.15749
       O   -14.11047    5.52188    5.66116
      H1   -14.46824    5.89792    4.83335
       H    -8.13892    4.51360    4.04260
       O    -8.52879    3.62487    4.11485
      H1    -9.48678    3.77155    4.17475
       H   -12.16096    1.41296   11.41671
       O   -11.41644    0.91179   11.78162
      H1   -11.47814    1.14615   12.69863
       H   -12.70303   -5.03058    7.08510
       O   -12.53836   -4.24603    6.57905
      H1   -12.07966   -3.59978    7.14876
       H   -15.63969   -1.11467    5.72714
       O   -14.81639   -1.58063    5.64191
      H1   -14.34534   -1.26298    6.43621
       H   -15.17527    3.84240    0.84330
       O   -15.21463    4.81504    0.90835
      H1   -15.77214    5.07789    0.16584
       H   -13.20508    6.36164    7.41342
       O   -12.74006    6.71648    8.15577
      H1   -12.91343    6.09432    8.90422
       H   -11.43987   -2.14842    9.29244
       O   -11.58436   -2.27984    8.35154
      H1   -10.80593   -1.83674    7.94220

