150
frame 11 | Written by MDAnalysis XYZWriter (release 2.4.3)
       H    -3.06439   11.23300    9.49752
       O    -2.21042   11.19349    9.00170
      H1    -1.91448   12.08982    8.81224
       H    -2.86640    4.46842   11.37567
       O    -3.44940    3.68350   11.29839
      H1    -4.16864    3.84532   11.92134
       H     7.24839    9.69842   10.09134
       O     7.73189    8.90690   10.19928
      H1     7.88511    8.50553    9.32597
       H     1.64514    3.26295    4.58680
       O     1.27313    3.81243    5.29762
      H1     2.00968    4.15040    5.80546
       H     1.90730    3.50870   10.07441
       O     2.43263    3.93043   10.74382
      H1     2.30853    3.39041   11.50325
       H    -0.72322    6.47788    6.33268
       O     0.21212    6.46398    6.59229
      H1     0.55132    5.63438    6.25933
       H    -0.48304    3.30467   13.35976
       O    -0.98894    3.33768   14.18395
      H1    -0.32054    2.98204   14.81410
       H     2.61480    5.78001    7.66321
       O     2.84109    4.99962    7.12555
      H1     3.71767    4.68047    7.25627
       H    -0.82725    3.76976    9.67021
       O    -1.37334    3.59056    8.85944
      H1    -2.12823    3.10819    9.32062
       H     3.76634    6.83949   14.09870
       O     4.06529    7.76459   14.31976
      H1     3.53656    8.20694   14.99581
       H     0.82613    8.46368    6.49541
       O     1.53019    8.95675    7.01214
      H1     1.33016    9.89413    6.81296
       H     1.90808    5.76888   13.70408
       O     2.72027    5.39494   14.10582
      H1     2.64016    5.78890   14.96389
       H    -2.20808    6.51409   10.77962
       O    -2.15745    5.94748   11.61215
      H1    -2.83413    6.34725   12.24691
       H    -4.58104    5.83569    9.23500
       O    -4.79136    6.51617    9.91863
      H1    -5.49842    7.07824    9.57049
       H     2.77410   12.21255    6.41007
       O     1.98479   11.99227    6.90412
      H1     2.12523   12.26053    7.82958
       H     0.48789    9.27731   10.29232
       O     0.02967   10.11877   10.29778
      H1    -0.62620   10.05700    9.65267
       H     6.74025    7.64247   12.99178
       O     6.37671    7.13123   12.23672
      H1     6.74061    7.57391   11.43789
       H    -1.08271    9.63543   12.35438
       O    -1.80790    9.26551   12.80999
      H1    -2.02821    9.82585   13.58499
       H    -2.61665    5.10314    5.72670
       O    -2.40680    6.00080    5.80487
      H1    -2.88447    6.27362    6.58856
       H    -4.05388    7.83085   10.77119
       O    -3.93387    8.76873   11.10298
      H1    -3.10900    8.75791   11.62427
       H     6.26623    5.92329    8.25444
       O     6.20981    5.09773    8.73536
      H1     5.56202    5.30136    9.43452
       H    -1.30490    5.66022    8.96257
       O    -1.57481    6.55914    8.92375
      H1    -0.79468    6.99530    8.59221
       H     2.67467   10.02967   15.06844
       O     2.53541    9.46107   15.85584
      H1     2.99137    9.85054   16.59506
       H     5.23545   13.41884   10.51863
       O     4.85533   12.67760   11.03595
      H1     3.97483   12.54611   10.58507
       H     6.30590    4.08716   13.67879
       O     6.53556    4.36319   12.76236
      H1     6.34288    5.28294   12.63535
       H     0.09541   14.72313   11.07208
       O     0.94881   14.35734   11.27426
      H1     0.65642   13.56431   11.85875
       H    -2.06035    8.34155   18.03192
       O    -2.57835    8.01297   17.31680
      H1    -2.05589    8.32961   16.56754
       H    -1.64210    5.60037   15.87347
       O    -2.41345    5.47729   16.37288
      H1    -2.53567    6.36471   16.68495
       H     1.48902    7.39027   10.26812
       O     1.16468    7.79586   11.04533
      H1     0.71985    7.14941   11.61098
       H     0.55072    7.04958   16.37582
       O     0.32826    7.72829   15.78342
      H1     1.08542    8.33438   15.84620
       H     1.46577   11.70036   12.84868
       O     0.59351   12.09387   12.60456
      H1     0.09815   11.60828   11.92297
       H     1.91944    5.70999   18.02610
       O     1.77361    5.57987   17.10458
      H1     2.02546    4.68178   16.99108
       H    -3.77931   11.05389   14.62067
       O    -2.93312   10.69648   14.98661
      H1    -2.43508   11.51693   15.11515
       H    -0.48647    6.18478   12.73904
       O     0.26610    6.28788   13.30450
      H1    -0.05310    6.82646   14.12498
       H    -0.49115    2.70133    7.52275
       O    -0.39705    2.28161    6.65436
      H1     0.36323    2.70567    6.23865
       H     2.61254    8.69508   11.44627
       O     3.38059    9.28356   11.46546
      H1     4.05468    8.69392   11.73533
       H     0.99250    2.02441    8.00187
       O     1.59720    1.96525    8.75607
      H1     2.41595    1.87710    8.30621
       H    -2.43293   10.52416    7.48500
       O    -2.94566   10.34842    6.67505
      H1    -3.77179   10.98429    6.70798
       H     2.93188    7.20981    9.02569
       O     2.08508    6.96911    8.63664
      H1     1.81860    7.67457    8.03123
       H    -5.30448   11.26185    9.39758
       O    -4.56055   11.34331   10.01730
      H1    -4.42779   10.37491   10.25891
       H     3.61614    5.34651   10.37832
       O     4.25916    6.09186   10.34178
      H1     4.43774    6.27691   11.27113
       H    -0.03073   11.78923   15.13484
       O    -0.68793   12.40781   15.50128
      H1    -0.86438   13.10534   14.81916
       H    -4.13399    7.09057   14.36119
       O    -3.75480    7.14090   13.47845
      H1    -3.40224    8.03623   13.40824
       H     3.82779    2.58621   12.99470
       O     2.87168    2.73646   13.12697
      H1     2.75485    3.52411   13.67486
       H     5.71221    8.65758   14.61913
       O     6.66586    8.86584   14.68849
      H1     7.03270    8.05391   15.12950
       H     3.37338   10.40328   13.22620
       O     3.01850   11.22238   13.54494
      H1     3.70073   11.93106   13.60140
       H    -1.83433    2.75361   11.53150
       O    -0.88079    2.67961   11.33070
      H1    -0.79134    1.83451   10.88844
       H     1.79078   13.08881   10.21658
       O     2.27684   12.42045    9.69451
      H1     1.86367   11.53806    9.89356
       H     3.25700    7.86086    5.72504
       O     3.81110    7.77051    4.91079
      H1     4.38708    6.99842    5.03243
       H    -3.30094    7.37361    8.13219
       O    -3.80123    7.71609    7.33885
      H1    -3.37750    8.55387    7.15605

