150
frame 0 | Written by MDAnalysis XYZWriter (release 2.4.3)
       H    -0.63364    2.57496   13.37749
       O    -1.39253    3.07256   13.01404
      H1    -1.48231    2.78437   12.08651
       H     3.38950   11.99039   18.79610
       O     2.89033   12.26731   19.52429
      H1     3.07528   13.22059   19.66684
       H    -5.44673    4.76368   16.23352
       O    -5.71787    5.12492   17.12295
      H1    -5.08919    5.87839   17.11448
       H    -2.82794    4.86554   18.10749
       O    -2.65998    4.82976   17.13634
      H1    -1.97139    4.11651   17.05285
       H    -9.21557    6.89027   14.24595
       O    -9.27839    7.46160   13.42593
      H1    -8.39264    7.87241   13.44290
       H    -0.25258    3.28256   16.07645
       O    -0.84846    2.97468   16.78529
      H1    -1.33347    2.17413   16.42161
       H     0.21800   10.53150   14.08619
       O    -0.03594   11.12445   13.32462
      H1     0.64367   11.01650   12.68795
       H    -2.94060   10.62744   12.52779
       O    -2.26842    9.86946   12.38968
      H1    -1.46243   10.38308   12.61634
       H     2.42900    9.63162   13.75483
       O     3.16504   10.13609   13.39699
      H1     3.34536   10.80387   14.03839
       H     3.71172    9.74069   17.41824
       O     4.17656   10.56957   17.48771
      H1     3.59338   11.14668   16.98175
       H    -3.11791    7.41884   18.54011
       O    -2.81237    7.23270   19.42734
      H1    -3.20286    6.33917   19.39099
       H    -2.80463    0.46336   16.88875
       O    -2.25376   -0.23214   17.29837
      H1    -2.05189    0.21083   18.12839
       H    -9.90688    5.04611   18.12713
       O   -10.87646    5.11519   17.90087
      H1   -11.18322    4.32824   18.49287
       H    -9.20207    2.76637   16.85213
       O   -10.03858    2.55691   16.46165
      H1   -10.64305    3.09469   16.96506
       H    -4.31969    2.67400   13.04315
       O    -3.78527    1.86745   13.24332
      H1    -2.86711    2.15624   13.29635
       H     4.35157    5.01416   15.15686
       O     3.65556    4.58368   15.72103
      H1     4.17749    4.10352   16.34427
       H    -5.99855   10.38935   17.38101
       O    -6.20681    9.61500   16.80971
      H1    -6.48976   10.05792   15.95002
       H    -6.24243    7.07972   13.90057
       O    -6.00398    7.64727   14.64340
      H1    -6.69055    7.52130   15.32790
       H    -8.87293   10.29126   17.23600
       O    -8.70221    9.42478   17.63047
      H1    -7.70921    9.39326   17.65570
       H    -0.37441    6.31858   15.90275
       O    -0.41506    6.37992   14.90703
      H1    -1.33477    6.43281   14.58814
       H    -7.08270   12.83062   15.63377
       O    -7.52249   11.95315   15.46043
      H1    -7.92776   12.20328   14.58137
       H    -5.49295   11.17928   19.53007
       O    -5.93966   11.60172   18.85354
      H1    -6.79874   11.74238   19.30891
       H     1.18827   10.97154   16.86735
       O     0.90374   10.20228   16.33278
      H1     1.63825    9.58246   16.54791
       H   -10.40044    7.16900   18.79242
       O   -10.27314    7.92888   19.35595
      H1    -9.60892    8.41278   18.76630
       H     0.67555    4.84757   14.35062
       O     0.98870    4.00322   14.70844
      H1     1.94026    4.24734   14.88361
       H    -2.21256   13.82632   18.42768
       O    -1.49739   14.00843   17.82187
      H1    -0.83791   13.23798   17.86545
       H     3.38714    6.27993   19.56859
       O     2.51402    6.78463   19.33615
      H1     2.69143    7.66530   19.80514
       H    -0.96277    6.99026   18.39952
       O    -0.23902    6.80647   17.83232
      H1     0.25803    6.09863   18.24488
       H     2.61137    7.54515   17.79082
       O     2.86438    8.15464   17.09525
      H1     3.56892    7.68414   16.67552
       H    -5.08541    9.82696   11.77536
       O    -5.02866    8.88343   11.81342
      H1    -4.13505    8.71412   12.08551
       H    -3.60893   12.45747   11.53490
       O    -4.13620   11.86920   12.08113
      H1    -4.18597   12.21958   13.01425
       H    -4.07164   12.77621   15.86822
       O    -3.76947   12.20244   15.09360
      H1    -3.44124   11.36788   15.40857
       H     1.58066    2.51253   18.86880
       O     0.97395    1.86211   18.49058
      H1     0.22573    2.48343   18.29779
       H     2.87162    1.54658   18.14517
       O     3.51698    1.70481   17.42262
      H1     2.98386    1.82736   16.60173
       H    -5.41990    4.50669   14.04922
       O    -5.44835    3.88494   14.81344
      H1    -6.30311    3.53540   14.61209
       H    -7.77527    5.75669   19.02795
       O    -8.11650    5.27083   18.24535
      H1    -7.35823    5.02190   17.68523
       H    -3.84531    5.60885   13.15909
       O    -4.26188    5.23862   12.37911
      H1    -5.10379    5.73772   12.36105
       H    -5.00205   14.35128   17.43063
       O    -4.27390   13.66252   17.35319
      H1    -4.63255   12.93149   17.87486
       H    -3.49497    1.89875   15.04065
       O    -3.33827    2.15261   15.94104
      H1    -3.26901    3.10761   15.83983
       H    -0.67187    9.47007   17.91737
       O    -0.52981    9.51518   18.86578
      H1    -0.10396    8.64317   19.00866
       H    -2.86222    5.70767   15.45916
       O    -3.15746    6.26353   14.69781
      H1    -3.87737    6.81265   15.15951
       H    -7.87569    1.58469   18.11333
       O    -7.67928    2.44971   17.87588
      H1    -8.31458    2.84691   18.49802
       H     2.38342   12.63570   16.14753
       O     3.11401   12.38306   15.61604
      H1     3.70413   13.16805   15.61996
       H    -6.36043    7.67597   11.84686
       O    -6.53244    6.73410   12.03789
      H1    -7.36589    6.59803   11.57244
       H     1.32833   12.95335   18.23295
       O     0.82577   12.74014   17.40199
      H1     0.66128   13.63473   16.97927
       H     0.24599    7.95180   12.59574
       O     0.91493    8.18019   13.24430
      H1     0.50792    7.71936   14.06772
       H   -10.02708    8.91915   16.12257
       O   -10.91833    9.09099   15.77032
      H1   -11.54137    9.17630   16.56465
       H    -2.36484    9.54762   14.34783
       O    -2.22803    9.58828   15.32047
      H1    -1.31402    9.73759   15.37554
       H    -3.17727    8.55162   16.55331
       O    -3.93621    8.08225   17.00539
      H1    -4.75046    8.69452   16.91007
       H    -8.56392    6.49673   17.02394
       O    -8.69772    7.14701   16.28566
      H1    -8.68586    7.96882   16.78845

