150
frame 0 | Written by MDAnalysis XYZWriter (release 2.4.3)
       H    -1.61240  -10.97287   -0.76307
       O    -1.57299  -11.59261   -1.46302
      H1    -1.59996  -12.44265   -1.11120
       H    -1.44407  -15.59197   -9.50814
       O    -2.12712  -15.36748   -8.83713
      H1    -2.56701  -14.64273   -9.31407
       H     0.65792   -7.42675    1.46991
       O     0.08791   -7.65224    0.69343
      H1     0.50160   -7.32846   -0.08649
       H     3.56592   -5.49145   -6.09530
       O     3.37030   -4.74507   -6.69211
      H1     2.91848   -5.01284   -7.51159
       H     1.34685  -13.01208   -6.54004
       O     0.71632  -13.25997   -7.26869
      H1     0.44636  -14.14107   -7.13187
       H    -0.52047   -5.90664   -1.36903
       O     0.34101   -5.99340   -1.76763
      H1     0.26766   -6.67276   -2.48800
       H    -0.05430  -10.13620  -11.38171
       O     0.50589   -9.86368  -12.13776
      H1     1.24152  -10.43021  -11.97291
       H     2.79738  -11.57420   -5.52366
       O     1.88265  -11.41893   -5.73998
      H1     1.30007  -11.54141   -4.96879
       H    -3.69625  -16.98675   -3.48896
       O    -2.80342  -16.67462   -3.72808
      H1    -2.57688  -17.05540   -4.62237
       H     4.77700  -13.83214   -4.33661
       O     4.11594  -13.55291   -5.05938
      H1     3.32443  -13.74697   -4.58388
       H     2.75284   -8.84425   -8.65698
       O     2.78687   -7.89867   -8.71570
      H1     2.22187   -7.60398   -9.41836
       H     1.34360  -10.28136    2.14628
       O     1.39164  -10.10920    1.19692
      H1     1.00520   -9.24388    1.18275
       H    -2.59896  -14.61070   -4.39263
       O    -2.75414  -13.71818   -4.14157
      H1    -2.84618  -13.06371   -4.90059
       H    -0.58164  -12.12516   -3.36268
       O     0.37056  -11.97288   -3.45829
      H1     0.60789  -11.47221   -2.67940
       H     4.80315  -14.00415   -1.07721
       O     3.94396  -13.79455   -0.68191
      H1     3.82144  -12.86653   -0.89164
       H    -3.02199  -10.93598   -4.91042
       O    -2.96958  -11.57160   -5.62385
      H1    -2.21054  -11.38451   -6.14935
       H     4.71188  -13.71760   -8.69506
       O     5.06034  -13.10630   -9.41982
      H1     5.31789  -12.23500   -9.06168
       H     5.15087  -10.43541   -5.69121
       O     4.60413  -11.16414   -6.16073
      H1     4.64304  -12.04039   -5.61969
       H     3.40652  -10.77487   -7.89914
       O     2.68854  -10.49062   -8.50328
      H1     1.82379  -10.62060   -8.06360
       H     6.14547  -15.38746   -2.22895
       O     5.67330  -15.08191   -3.05677
      H1     6.14046  -15.77021   -3.70066
       H     4.04804   -7.86149   -5.81684
       O     3.85693   -7.13520   -5.26704
      H1     2.88285   -7.17310   -5.16658
       H    -1.69209   -8.52888   -1.38762
       O    -1.89453   -8.94823   -0.55528
      H1    -1.22937   -8.46600   -0.00038
       H    -4.92004  -13.96211   -0.59426
       O    -4.61885  -13.51549   -1.37134
      H1    -3.69594  -13.67564   -1.33787
       H     1.86103   -7.64636   -7.29799
       O     1.45904   -7.61412   -6.43859
      H1     0.58070   -8.04107   -6.45882
       H    -1.63364  -10.85130  -10.33344
       O    -0.71898  -10.80085   -9.94748
      H1    -0.34970  -11.69807   -9.82942
       H     4.23048   -7.61370   -2.22528
       O     3.67899   -8.32542   -2.53598
      H1     3.72971   -8.17981   -3.47327
       H    -1.75752  -14.33300   -2.37364
       O    -1.47185  -14.28540   -1.45107
      H1    -0.51468  -14.47388   -1.53228
       H    -2.97850  -17.14512   -6.87035
       O    -2.08457  -17.26019   -6.35644
      H1    -1.65922  -16.37388   -6.49574
       H     2.96933  -11.88632  -11.86707
       O     2.19310  -11.99126  -11.27530
      H1     2.55261  -11.89449  -10.39691
       H    -4.34422  -11.68072   -6.84543
       O    -5.09064  -12.17429   -7.36693
      H1    -5.56372  -11.44694   -7.72576
       H    -0.91216  -10.91642   -8.21311
       O    -0.89501  -11.16156   -7.30818
      H1    -0.44698  -12.05692   -7.29462
       H     3.49621  -17.30884   -2.94046
       O     3.29464  -16.38231   -2.66066
      H1     4.02780  -15.73629   -2.98599
       H     5.81415  -11.02313   -7.67579
       O     6.26086  -11.00560   -8.49798
      H1     6.36526  -10.08877   -8.73032
       H     1.79883  -16.05071   -1.64620
       O     1.11980  -15.68013   -1.11851
      H1     1.34917  -14.95318   -0.56461
       H     2.11914  -15.22062   -3.68554
       O     1.74438  -14.57429   -4.33181
      H1     1.25420  -13.91175   -3.91144
       H    -1.46678   -9.07734   -6.23078
       O    -1.22295   -8.41588   -5.61771
      H1    -1.76372   -7.69261   -5.78314
       H     0.04161  -13.56039    1.08615
       O     0.92599  -13.39723    0.91506
      H1     1.03014  -12.43432    0.82365
       H     1.50250  -16.21315   -7.52819
       O     0.56457  -16.07141   -7.49822
      H1     0.28960  -16.22160   -8.43680
       H     0.88747  -13.11560  -10.67565
       O     0.23319  -13.25776  -10.00254
      H1     0.69026  -13.34756   -9.11625
       H     4.97588  -15.90403   -9.18897
       O     4.69240  -15.58708   -8.31362
      H1     5.51860  -15.22259   -8.05386
       H     3.67810  -16.02658   -7.16212
       O     2.91422  -16.37842   -6.63491
      H1     2.60816  -15.75822   -5.97201
       H     0.40414   -6.26982   -6.91487
       O    -0.27347   -5.81061   -7.56458
      H1    -0.83378   -6.51858   -7.93478
       H     3.98732  -11.34817   -2.95743
       O     3.67967  -11.42099   -2.04900
      H1     3.17271  -10.60175   -1.88733
       H    -1.37658   -8.03024   -8.90390
       O    -1.98759   -7.72789   -8.27558
      H1    -2.83755   -7.65754   -8.73742
       H     6.65492   -8.41937   -5.62537
       O     6.20592   -9.16776   -5.19673
      H1     6.81602   -9.87810   -4.93983
       H    -0.04721   -9.04593   -2.55599
       O    -0.63319   -8.30073   -2.95139
      H1    -0.78403   -8.55741   -3.85583
       H    -3.42413   -9.28925   -2.66139
       O    -3.24067  -10.13130   -3.04080
      H1    -2.44513  -10.43883   -2.59349
       H     1.19723  -10.08529   -0.71992
       O     1.34700   -9.87030   -1.69349
      H1     1.98838   -9.16894   -1.72109
       H     8.17158  -11.65048   -5.78990
       O     7.77417  -11.53541   -4.89435
      H1     7.53936  -12.44614   -4.60398
       H     5.39718  -10.02622   -0.09319
       O     5.83541  -10.15086   -0.95695
      H1     5.11338  -10.56371   -1.46534

