150
frame 5 | Written by MDAnalysis XYZWriter (release 2.4.3)
       H    14.00858    5.30506   17.92845
       O    13.32477    5.10982   17.24280
      H1    13.55489    5.84277   16.67376
       H    17.94645    4.19973    6.17130
       O    17.96636    3.81586    7.11227
      H1    17.04251    3.67336    7.42881
       H     8.73956    7.30585   12.15726
       O     9.06481    7.88050   11.43020
      H1     8.53355    8.66983   11.32306
       H    16.27922    5.79035   10.91422
       O    15.54048    6.45742   11.04088
      H1    14.87567    6.04247   11.60947
       H    18.42267    5.51090    9.27306
       O    18.03769    5.37873   10.17078
      H1    18.19063    4.45892   10.13233
       H     6.87737    4.21615   10.95877
       O     6.11005    3.61056   11.05271
      H1     6.46607    2.78468   11.35172
       H    11.80176    4.29029   17.90562
       O    10.84659    4.11164   17.77628
      H1    10.71961    3.26493   18.18432
       H     9.11010    3.83853   16.78037
       O     8.43171    3.64125   16.08756
      H1     8.86914    3.95718   15.32107
       H    14.71345    2.86840    7.78981
       O    15.20662    3.57373    7.33679
      H1    14.78026    4.39920    7.58417
       H    10.03406    9.43964   13.86360
       O    10.38632    9.65000   12.99407
      H1     9.86236    9.09210   12.40082
       H    11.18399    3.23437   15.19377
       O    11.40416    2.32492   15.07963
      H1    12.03067    2.30649   14.37882
       H    14.06650    2.44662   12.87629
       O    13.32751    1.89959   13.14411
      H1    12.97484    1.59196   12.30972
       H    14.65149   -0.67936    8.55112
       O    15.10383   -1.25370    9.25636
      H1    15.56303   -1.99008    8.75766
       H    15.09401    9.65843   10.04488
       O    15.48750    9.31304   10.84298
      H1    15.33550    8.39388   10.78774
       H    16.03122    3.35741   13.38364
       O    15.23721    3.57523   13.90578
      H1    15.10712    2.85886   14.53667
       H    13.04650   -2.54676   12.89864
       O    12.66376   -1.70523   13.11086
      H1    12.33128   -1.40999   12.22275
       H    12.05140    7.23795   14.63587
       O    11.48338    7.13962   13.85974
      H1    11.49814    8.03839   13.42617
       H    14.03867   10.05818   11.90014
       O    13.28060   10.40934   12.40335
      H1    12.49302   10.08290   12.05841
       H    13.48601    0.22326   16.15219
       O    12.71658   -0.32992   15.99546
      H1    12.60823   -0.35479   15.02775
       H    12.16955    7.47125    6.73905
       O    12.53982    8.21027    6.25265
      H1    11.75276    8.76617    6.04985
       H    13.69100    0.91676    7.85311
       O    13.98547    0.11501    7.35173
      H1    14.68942    0.44996    6.77101
       H     9.48762    8.47609   16.03216
       O     8.95405    8.91120   15.36173
      H1     8.69026    8.15310   14.79153
       H    15.33395    6.61589    6.70534
       O    15.76459    6.54517    5.87348
      H1    15.06981    6.63211    5.23071
       H     8.97265    7.05149    7.05568
       O     8.35895    7.43209    7.69738
      H1     8.45373    8.37726    7.60451
       H    15.43322   -0.34707   11.38118
       O    16.10918   -0.00903   12.05127
      H1    16.94992   -0.17064   11.59538
       H     6.86911    6.21622    7.73825
       O     6.30065    5.47675    8.06518
      H1     5.49153    5.85948    8.44946
       H    10.35256    1.27012   13.91386
       O    10.10022    0.66538   13.21277
      H1     9.29133    0.95979   12.91273
       H     7.39840    2.76159   13.87007
       O     7.89613    3.11954   13.11114
      H1     7.25921    3.60059   12.61949
       H    14.64727   11.26649   14.91755
       O    14.14585   10.42211   14.98989
      H1    13.59734   10.32020   14.20392
       H     8.89567    5.97126   14.18239
       O     8.12401    6.58552   14.10249
      H1     7.30174    6.08905   14.25428
       H     9.60593    0.23527    8.64778
       O     8.84306    0.37863    9.22188
      H1     8.62263   -0.45426    9.71496
       H    11.98630    7.06736   10.98342
       O    11.69769    7.80976   10.44699
      H1    10.79638    7.91657   10.71706
       H     6.01427    1.82488    8.15567
       O     5.36756    2.31162    8.69852
      H1     5.87028    2.83930    9.33908
       H    16.27900    2.45978   10.57096
       O    16.35684    2.57538   11.50650
      H1    16.26184    1.64531   11.85384
       H    11.77559    0.26838    7.38054
       O    10.85119    0.27098    7.47238
      H1    10.51481   -0.27791    6.74479
       H    11.99575   -0.42491   10.70862
       O    11.80236    0.48889   10.95451
      H1    11.07687    0.60734   11.56355
       H    11.72359    6.79045    9.07960
       O    11.58520    6.36649    8.21619
      H1    11.39417    5.41526    8.32082
       H    12.82452    6.07872   13.20964
       O    13.49552    5.62435   12.67970
      H1    14.06451    5.12264   13.32709
       H    10.47937    3.50316    6.77605
       O    10.83316    3.50682    7.66317
      H1    10.12689    3.13922    8.16080
       H    10.38652    4.88013   13.01931
       O     9.85931    4.61491   13.73457
      H1     9.15201    4.05205   13.37934
       H    12.92526    1.85112   16.82736
       O    13.74181    2.19459   17.24337
      H1    13.75538    3.08985   16.93894
       H    16.17509    8.67184   14.52761
       O    16.49803    7.93043   14.03247
      H1    16.21947    7.97859   13.10712
       H    10.88021    4.34497   10.67357
       O    11.13589    5.01662   11.31230
      H1    12.01605    4.77265   11.63080
       H    15.49762    5.28741   15.63201
       O    16.11660    5.21000   16.35457
      H1    15.69487    5.05949   17.19739
       H    12.16941    2.54450    8.50824
       O    12.87202    2.01234    8.96366
      H1    12.53741    1.58903    9.76018
       H     8.59574    1.70517   16.21300
       O     9.08690    0.89014   16.17507
      H1     9.97788    1.16310   15.88048
       H    13.23001    6.07396    8.27230
       O    14.21217    6.03289    8.20104
      H1    14.55311    6.10527    9.08301
       H     8.80724    3.53880   10.13410
       O     9.58173    2.97028   10.19448
      H1     9.26869    2.12886   10.44276
       H    14.63030    7.27016   15.02510
       O    13.70798    7.16177   15.36502
      H1    13.63408    7.85449   16.06639
       H     7.41549    5.51510    9.42606
       O     8.02319    5.35087   10.14925
      H1     8.44434    6.20886   10.31536

