150
frame 7 | Written by MDAnalysis XYZWriter (release 2.4.3)
       H     4.92181   -7.19996    2.87614
       O     5.19201   -6.64778    2.11811
      H1     4.57061   -6.98997    1.46918
       H     0.69949   -8.58795    1.87067
       O     0.64156   -8.40673    0.91795
      H1     1.48587   -7.95478    0.67285
       H     8.48041  -11.96847   -0.49531
       O     7.67622  -11.47837   -0.69237
      H1     7.92787  -10.96546   -1.45048
       H    10.75370  -14.10673    1.54566
       O    11.12743  -14.27877    2.43270
      H1    11.20630  -15.26224    2.42621
       H     8.97916   -8.84186    6.57844
       O     8.19743   -8.80189    5.96353
      H1     8.46397   -8.31735    5.23735
       H     4.29976   -7.76047    6.15591
       O     4.38981   -6.96192    6.73346
      H1     4.49036   -6.32790    6.02602
       H     7.28249   -2.75498    0.93915
       O     6.92198   -3.20677    1.69327
      H1     6.03892   -3.50550    1.52031
       H     5.49309   -7.82024    7.84390
       O     6.22298   -8.02506    8.41318
      H1     6.98408   -8.25702    7.84471
       H     7.44982  -13.58133    6.10267
       O     7.30888  -14.18743    5.38992
      H1     7.48606  -13.80707    4.52263
       H     8.17594  -16.58619   -0.27456
       O     8.23482  -15.79580    0.27262
      H1     8.19603  -16.19584    1.18192
       H     1.95929  -14.29741    1.21993
       O     2.14469  -14.33470    2.12181
      H1     2.99225  -14.81114    2.11918
       H     1.73595   -6.80959    3.84245
       O     1.05660   -7.42934    3.54096
      H1     0.80747   -7.81662    4.36604
       H     8.01540   -9.26271   -2.92491
       O     8.79506   -9.80164   -2.79394
      H1     9.47717   -9.46286   -3.41480
       H     6.66059   -6.33957    1.19881
       O     7.29326   -5.93956    0.57473
      H1     7.29855   -4.95936    0.70482
       H     4.59257  -10.63956    2.06299
       O     5.52204  -10.97580    1.97703
      H1     6.10579  -10.21707    1.88684
       H     2.81070  -10.66048    3.50194
       O     3.05301   -9.91763    2.95076
      H1     2.40552   -9.15335    3.00775
       H     8.72908  -12.91552    2.59969
       O     7.97781  -13.50878    2.78983
      H1     7.20398  -13.21172    2.33992
       H     3.74883   -4.35682    5.27117
       O     4.23181   -4.86164    4.67772
      H1     3.71874   -4.86894    3.81897
       H    12.55900  -11.11184    4.47674
       O    11.68200  -10.73983    4.63441
      H1    11.72713   -9.96860    5.24085
       H     3.33229   -4.44211    1.50991
       O     2.73116   -4.75129    2.20277
      H1     2.08577   -4.02024    2.32650
       H     1.76588  -15.65284   -0.43491
       O     1.54521  -14.67132   -0.40410
      H1     2.24100  -14.13118   -0.81214
       H     8.42729   -8.73029    1.07227
       O     7.81462   -9.38199    1.28590
      H1     7.76803   -9.99693    0.50464
       H    -0.04255  -13.37078    5.36353
       O     0.64614  -13.11428    6.01583
      H1     1.39218  -12.91061    5.45383
       H     4.79671  -16.25227    1.59832
       O     4.60752  -15.46142    2.17053
      H1     4.90722  -14.61752    1.78121
       H     9.96766   -7.49530    4.41712
       O     9.17621   -7.38211    3.87749
      H1     9.47756   -7.25541    2.99379
       H     6.91016  -14.28722    0.23644
       O     6.13927  -13.80113    0.32578
      H1     6.26580  -12.94041   -0.17465
       H     7.19127  -10.28978    5.45293
       O     6.66734  -11.05829    5.15565
      H1     6.75815  -11.16611    4.21327
       H     9.29588  -10.52517    2.56361
       O     9.77464  -11.30511    2.75911
      H1    10.29840  -11.20308    3.59052
       H    12.09655   -8.44334   -0.97589
       O    11.42792   -7.78742   -1.24953
      H1    11.25935   -8.04763   -2.14118
       H    11.99335   -5.12673    0.48941
       O    11.27618   -4.95149    1.08957
      H1    10.84627   -5.83775    1.10516
       H     5.69267  -12.06555    6.23155
       O     4.87640  -12.49301    6.61589
      H1     4.98922  -12.42976    7.57955
       H     7.11647   -5.18151    3.47566
       O     7.71716   -5.07784    4.23482
      H1     8.31860   -5.78798    4.26008
       H     0.21733  -10.27104   -1.34848
       O     0.20543  -10.97227   -0.70258
      H1     0.49450  -10.50138    0.05405
       H     4.12159  -15.80544   -0.69577
       O     4.68410  -15.34344   -1.33313
      H1     5.15438  -14.63580   -0.82979
       H     0.31858   -9.57004    5.94936
       O     1.18788   -9.82032    5.49951
      H1     1.74293  -10.13130    6.22686
       H     3.64413  -11.18210    6.85499
       O     2.85810  -10.86924    7.35163
      H1     3.08224  -10.04955    7.79537
       H     5.13575  -14.50282    5.00459
       O     4.33157  -14.94198    4.71890
      H1     4.46264  -15.15180    3.77621
       H     4.01440   -9.22533    4.44510
       O     4.74803   -9.01800    5.00028
      H1     5.30407   -9.78221    5.14924
       H     3.93340   -8.38090   -0.52457
       O     3.92535   -7.45413   -0.35443
      H1     3.38942   -6.89368   -0.94080
       H    13.42039   -9.13544    1.55620
       O    13.20312   -9.08572    2.49917
      H1    12.44067   -9.58409    2.69920
       H     0.35705  -10.66961    4.02318
       O     0.31240  -11.39270    3.33589
      H1    -0.47936  -11.17190    2.85440
       H     3.41322  -13.26978    4.59768
       O     3.10624  -12.55643    4.03106
      H1     2.53153  -12.93243    3.31456
       H     4.09144   -4.07555   -0.48664
       O     4.79697   -4.19221    0.18216
      H1     5.12702   -5.03351    0.17344
       H     9.98825   -7.44006    0.08593
       O     9.65170   -7.28010    0.96360
      H1     8.88753   -6.70680    0.78314
       H     1.77547  -11.85172   -1.29156
       O     2.68639  -12.18024   -1.26303
      H1     2.79874  -12.72178   -2.02613
       H    10.03539  -12.48584    1.06611
       O    10.05631  -13.01251    0.23284
      H1    10.98018  -12.87832   -0.07117
       H     9.02485  -16.74094    4.00675
       O     8.62343  -16.34771    3.16183
      H1     8.51460  -15.39406    3.34475
       H     6.39300   -7.47346   -3.25833
       O     6.41299   -8.47189   -3.27799
      H1     5.70129   -8.76295   -2.73032
       H    11.82259  -11.95659   -1.91312
       O    11.92867  -11.00459   -2.10868
      H1    11.09704  -10.75551   -2.56359
       H     5.05588  -10.40386    0.29307
       O     4.64913  -10.16320   -0.58805
      H1     4.05493  -10.94518   -0.77591

