150
frame 6 | Written by MDAnalysis XYZWriter (release 2.4.3)
       H   -12.84287    2.40057   -6.70444
       O   -12.33891    1.63992   -6.25647
      H1   -11.61564    1.53441   -6.90356
       H    -7.01507    2.64048   -4.42631
       O    -6.49677    2.59727   -3.59774
      H1    -6.98143    1.83985   -3.13144
       H   -10.56924    4.15745   -5.03838
       O    -9.85276    4.52581   -5.57812
      H1    -9.72885    5.40662   -5.21817
       H    -4.64260   -0.62830   -6.30383
       O    -4.93342    0.19880   -5.88138
      H1    -4.14485    0.48128   -5.39602
       H    -7.97085   -1.37292   -8.69142
       O    -8.07944   -2.16820   -9.20309
      H1    -7.29489   -2.39045   -9.69155
       H    -9.34890   -1.99427    2.31587
       O    -8.48248   -2.00419    2.70807
      H1    -8.24013   -1.07479    2.68617
       H    -4.55281   -2.96032   -3.85553
       O    -4.01778   -3.75075   -3.71116
      H1    -3.06917   -3.48328   -3.89887
       H    -8.15265    1.75955   -6.58834
       O    -7.93252    2.49034   -5.94475
      H1    -8.71553    3.03814   -5.81009
       H   -14.81535   -4.96076   -4.39016
       O   -15.23217   -4.12049   -4.39237
      H1   -16.00933   -4.24591   -4.99769
       H   -13.36609   -2.94742   -1.52971
       O   -12.50346   -3.13348   -1.86329
      H1   -11.97368   -3.08991   -1.09167
       H    -9.90120   -6.04544   -5.16415
       O    -9.80316   -5.62387   -4.32223
      H1   -10.69709   -5.14375   -4.24168
       H    -7.67358   -4.64562   -4.72361
       O    -6.89487   -4.09144   -4.57117
      H1    -6.60270   -3.89468   -5.48111
       H   -16.17474   -2.27233   -3.51203
       O   -16.01667   -1.39741   -3.83916
      H1   -15.19613   -1.33130   -4.29818
       H   -10.60142    0.40395    3.07178
       O   -10.53472    0.90835    2.26118
      H1   -10.32849    0.28122    1.58704
       H    -6.82212    1.33015   -8.43624
       O    -7.04614    0.55979   -7.91168
      H1    -6.46977    0.62134   -7.13736
       H   -13.56227   -1.09079    2.71222
       O   -13.62125   -1.41258    1.77294
      H1   -14.22501   -2.16329    1.81316
       H    -7.31153   -5.62572   -7.57160
       O    -7.93281   -6.17450   -7.05796
      H1    -7.25661   -6.68459   -6.50931
       H    -8.19851   -6.25122    0.32682
       O    -8.43242   -5.35588    0.53926
      H1    -7.97222   -5.07966    1.34128
       H   -12.48201   -1.15179   -4.36843
       O   -13.17964   -0.61773   -4.81027
      H1   -12.76916    0.21175   -5.15162
       H    -9.98674    2.74167  -10.12269
       O    -9.42459    2.62274   -9.33463
      H1    -9.91981    1.88382   -8.88918
       H   -15.52264    2.09860   -5.79554
       O   -15.90514    1.19785   -5.93194
      H1   -15.51711    0.81386   -6.71596
       H   -10.44635   -8.48516   -6.24225
       O   -10.36787   -7.63423   -6.66255
      H1    -9.45978   -7.49201   -7.00695
       H    -7.60298   -0.02061   -3.23513
       O    -7.66827    0.56899   -2.46756
      H1    -7.36176    0.12185   -1.73698
       H   -10.63214    0.28365   -1.71465
       O   -11.13516    0.39243   -2.54964
      H1   -10.83736    1.20112   -2.99746
       H   -12.71472   -4.44138   -5.18709
       O   -12.46960   -4.61034   -4.27073
      H1   -12.79378   -3.89622   -3.68055
       H    -8.80513   -7.63799   -1.41276
       O    -8.11376   -7.65538   -0.64629
      H1    -7.29567   -7.52452   -1.12073
       H   -14.38699    1.18221   -9.07314
       O   -14.42834    0.58089   -8.34476
      H1   -13.48183    0.46305   -8.07925
       H    -9.90876   -1.44533   -5.22854
       O    -9.41045   -1.25120   -6.05611
      H1    -9.17630   -2.08681   -6.44180
       H   -11.35873   -3.68740    1.13859
       O   -11.26074   -2.78624    0.79808
      H1   -12.04720   -2.28807    1.07495
       H   -12.41867   -3.36944   -8.30306
       O   -12.23852   -2.91206   -9.12038
      H1   -12.97604   -2.37032   -9.34474
       H   -11.71267   -5.90873    0.64758
       O   -11.12990   -5.43073    1.26075
      H1   -10.30316   -5.26558    0.78865
       H    -6.04233   -1.10165   -4.42905
       O    -5.94747   -1.68930   -3.67207
      H1    -6.43038   -2.45630   -3.89595
       H    -8.69577   -8.74970   -3.49360
       O    -9.28523   -8.06438   -3.11289
      H1    -9.31594   -7.35489   -3.74212
       H    -7.34218   -2.43040   -0.31243
       O    -7.46237   -1.58352    0.09496
      H1    -7.62743   -1.76395    1.00515
       H    -7.58271    4.75010   -1.62700
       O    -8.27102    4.61382   -2.29297
      H1    -7.86917    4.07124   -3.03573
       H    -9.21339   -4.85715   -7.10960
       O    -9.59091   -4.00911   -7.41317
      H1    -9.10305   -3.94753   -8.21824
       H   -12.88615    1.09135   -0.17075
       O   -12.51247    1.65438    0.55672
      H1   -11.85667    1.12667    0.99552
       H   -12.09203    2.65734   -4.69687
       O   -11.68662    3.17050   -3.98776
      H1   -12.41471    3.46771   -3.41316
       H   -12.96452    0.09934   -2.05637
       O   -13.74863    0.09380   -1.45722
      H1   -14.38597    0.65993   -1.93942
       H   -14.41002   -7.49854   -4.00648
       O   -14.24019   -6.57156   -3.61390
      H1   -13.31237   -6.20970   -3.70453
       H   -10.92876   -1.00459   -3.38526
       O   -10.74559   -1.86295   -3.90194
      H1   -11.06739   -2.54073   -3.28534
       H    -7.68110   -3.84762   -2.40930
       O    -7.37423   -3.71272   -1.50584
      H1    -7.73790   -4.51501   -1.07137
       H   -15.68306    1.37856   -3.96457
       O   -15.77642    1.37871   -2.97997
      H1   -16.08130    0.46758   -2.81019
       H   -11.10375   -0.00272   -8.72189
       O   -10.38938    0.20036   -8.09819
      H1   -10.09049   -0.47773   -7.47053
       H    -4.37823   -1.23366   -2.32589
       O    -3.70479   -0.92963   -1.66738
      H1    -3.74446   -0.01389   -1.86048
       H   -10.08327    3.21356   -0.26572
       O    -9.39884    2.64722   -0.49816
      H1    -9.03000    3.08570   -1.28220
       H   -12.39243   -5.53987   -7.46746
       O   -12.21924   -4.71379   -6.94342
      H1   -11.23666   -4.58395   -6.97628
       H   -12.81384   -6.74331   -1.35529
       O   -12.27266   -7.13413   -0.67414
      H1   -11.65684   -7.72709   -1.12230
       H   -15.85741   -2.65488   -1.21955
       O   -15.07367   -2.30836   -0.83285
      H1   -15.00647   -1.40266   -1.12143
       H    -9.11988   -0.81921   -0.00200
       O    -9.77533   -0.10472   -0.16852
      H1    -9.26412    0.72789   -0.22313

