150
frame 11 | Written by MDAnalysis XYZWriter (release 2.4.3)
       H     5.19209   12.75579   18.43663
       O     4.63061   13.04586   17.73371
      H1     5.14107   12.76788   16.97242
       H     7.24839    9.69842   10.09134
       O     7.73189    8.90690   10.19928
      H1     7.88511    8.50553    9.32597
       H     3.93746   11.23766   17.97892
       O     3.80624   10.27774   18.00138
      H1     4.70551    9.93131   17.91145
       H     5.79688   11.89677   14.92668
       O     5.86317   11.32396   15.71151
      H1     6.28670   10.45595   15.40894
       H     0.67628   14.64976   16.59218
       O     0.64189   15.35281   17.19914
      H1     1.45179   15.14082   17.68991
       H     4.83298   14.45786   14.07100
       O     5.31138   13.65129   13.72724
      H1     4.95399   13.53336   12.80863
       H     8.78061   11.30974   18.03920
       O     8.10045   10.67377   17.99894
      H1     8.60277    9.85128   17.94865
       H     3.64986    6.63098   18.55138
       O     2.98966    6.70128   19.23419
      H1     2.52331    7.53366   19.18030
       H     3.76634    6.83949   14.09870
       O     4.06529    7.76459   14.31976
      H1     3.53656    8.20694   14.99581
       H     5.75512   17.24302   11.43027
       O     4.97392   17.70197   11.13400
      H1     4.28705   17.10313   10.75268
       H    -0.78314   11.22466   18.33946
       O    -0.56160   12.13715   18.13376
      H1    -0.48836   12.22263   17.17402
       H     7.64199   16.35261   12.39412
       O     7.45375   16.59257   11.49727
      H1     7.11754   15.80246   11.01719
       H     6.91333   14.42724   14.18597
       O     7.69468   14.85581   14.58854
      H1     8.11704   14.07172   14.94768
       H     1.90808    5.76888   13.70408
       O     2.72027    5.39494   14.10582
      H1     2.64016    5.78890   14.96389
       H     3.51035   14.78480   18.34514
       O     3.04741   15.54636   18.79070
      H1     3.24578   15.35719   19.69242
       H     2.77410   12.21255    6.41007
       O     1.98479   11.99227    6.90412
      H1     2.12523   12.26053    7.82958
       H     0.48789    9.27731   10.29232
       O     0.02967   10.11877   10.29778
      H1    -0.62620   10.05700    9.65267
       H    -0.19709    9.26526   18.98431
       O    -1.14186    9.46753   18.97375
      H1    -1.57599    9.25930   19.81885
       H     6.74025    7.64247   12.99178
       O     6.37671    7.13123   12.23672
      H1     6.74061    7.57391   11.43789
       H    -1.08271    9.63543   12.35438
       O    -1.80790    9.26551   12.80999
      H1    -2.02821    9.82585   13.58499
       H     9.14463   11.92860   15.46683
       O     8.48080   12.55553   15.74622
      H1     7.64056   12.00399   15.80575
       H     2.67467   10.02967   15.06844
       O     2.53541    9.46107   15.85584
      H1     2.99137    9.85054   16.59506
       H     5.23545   13.41884   10.51863
       O     4.85533   12.67760   11.03595
      H1     3.97483   12.54611   10.58507
       H    -2.12943   14.55089   15.53380
       O    -1.54582   14.95964   14.80744
      H1    -1.87233   15.88336   14.63941
       H     0.22745   15.60542   14.25965
       O     1.03371   15.93215   13.86129
      H1     0.96752   15.45548   13.00095
       H     6.30590    4.08716   13.67879
       O     6.53556    4.36319   12.76236
      H1     6.34288    5.28294   12.63535
       H     0.09541   14.72313   11.07208
       O     0.94881   14.35734   11.27426
      H1     0.65642   13.56431   11.85875
       H     0.98758   18.12346   15.13455
       O     1.24786   17.81042   16.03441
      H1     0.94249   16.89500   16.15868
       H     2.42204   15.50388   10.39362
       O     3.10631   15.97886    9.93637
      H1     2.99643   15.83840    8.98237
       H     6.49401   12.13507   10.56604
       O     7.33496   11.67564   10.34156
      H1     7.86693   11.63962   11.14135
       H    -2.06035    8.34155   18.03192
       O    -2.57835    8.01297   17.31680
      H1    -2.05589    8.32961   16.56754
       H     1.48902    7.39027   10.26812
       O     1.16468    7.79586   11.04533
      H1     0.71985    7.14941   11.61098
       H     0.55072    7.04958   16.37582
       O     0.32826    7.72829   15.78342
      H1     1.08542    8.33438   15.84620
       H     1.46577   11.70036   12.84868
       O     0.59351   12.09387   12.60456
      H1     0.09815   11.60828   11.92297
       H     1.91944    5.70999   18.02610
       O     1.77361    5.57987   17.10458
      H1     2.02546    4.68178   16.99108
       H     9.25834   12.05679   13.36984
       O     9.39583   12.15190   12.44321
      H1    10.13958   11.46111   12.41885
       H    -3.77931   11.05389   14.62067
       O    -2.93312   10.69648   14.98661
      H1    -2.43508   11.51693   15.11515
       H    -0.48647    6.18478   12.73904
       O     0.26610    6.28788   13.30450
      H1    -0.05310    6.82646   14.12498
       H     7.15261   16.11337   15.88134
       O     7.30354   16.76421   16.56687
      H1     6.44520   16.95771   16.96430
       H     8.03514   10.79423    7.28761
       O     7.21350   10.69984    7.70260
      H1     7.20930   11.12441    8.56722
       H     6.17789   15.00114    8.94952
       O     5.73498   14.86554    9.79916
      H1     4.83020   15.25837    9.71541
       H     2.61254    8.69508   11.44627
       O     3.38059    9.28356   11.46546
      H1     4.05468    8.69392   11.73533
       H     2.93188    7.20981    9.02569
       O     2.08508    6.96911    8.63664
      H1     1.81860    7.67457    8.03123
       H     3.61614    5.34651   10.37832
       O     4.25916    6.09186   10.34178
      H1     4.43774    6.27691   11.27113
       H    -0.03073   11.78923   15.13484
       O    -0.68793   12.40781   15.50128
      H1    -0.86438   13.10534   14.81916
       H     6.12208    8.06793   16.98133
       O     6.05255    8.79106   17.65693
      H1     6.81275    9.42323   17.66684
       H     5.71221    8.65758   14.61913
       O     6.66586    8.86584   14.68849
      H1     7.03270    8.05391   15.12950
       H     3.37338   10.40328   13.22620
       O     3.01850   11.22238   13.54494
      H1     3.70073   11.93106   13.60140
       H     4.14873   16.84989   15.44713
       O     3.67026   16.10870   15.18590
      H1     2.80935   16.49088   15.17731
       H     1.79078   13.08881   10.21658
       O     2.27684   12.42045    9.69451
      H1     1.86367   11.53806    9.89356

