150
frame 0 | Written by MDAnalysis XYZWriter (release 2.4.3)
       H   -12.64978   19.48352   -8.17908
       O   -12.82893   19.64742   -9.13713
      H1   -12.59165   18.79161   -9.50667
       H   -14.96674   14.72064    4.70422
       O   -14.19833   15.09385    5.18236
      H1   -13.61365   15.04607    4.43560
       H   -17.62354   15.59942    3.72825
       O   -17.53702   15.32737    2.78191
      H1   -18.44940   15.38987    2.53035
       H   -17.03653   15.09776   -2.98336
       O   -17.71183   14.67100   -3.57789
      H1   -17.61900   13.75797   -3.31837
       H   -12.75009   18.89057   -3.54705
       O   -12.18414   18.12598   -3.57160
      H1   -11.85008   18.17081   -2.69632
       H   -14.86774   19.53859   -8.58016
       O   -15.52905   19.17801   -7.99531
      H1   -15.83529   18.42402   -8.54272
       H   -11.56473   10.10209    0.52765
       O   -11.98388   10.75312    1.10192
      H1   -12.55527   11.27967    0.49550
       H    -6.82045   17.51920   -1.12629
       O    -6.70119   18.17239   -0.42081
      H1    -6.04561   18.78626   -0.76012
       H    -7.36875   16.21716    2.24540
       O    -6.46966   16.22779    2.59761
      H1    -6.26416   17.15854    2.62008
       H   -14.96307   13.10352    2.99257
       O   -15.72201   13.43214    3.52762
      H1   -16.15552   13.84888    2.73624
       H   -17.03970   16.60369   -6.19839
       O   -16.54678   15.82373   -6.02847
      H1   -17.17380   15.37497   -5.36027
       H   -16.94170   18.96381   -6.60479
       O   -17.36438   18.36597   -5.95323
      H1   -18.20101   18.82357   -5.86577
       H   -13.80857   18.69951    2.99056
       O   -13.27846   18.09978    2.50632
      H1   -12.36396   18.51393    2.43916
       H    -8.28856   16.20078   -2.37194
       O    -7.31173   16.34258   -2.40221
      H1    -7.27126   16.48601   -3.31495
       H   -11.20518   13.87488   -2.56779
       O   -10.30834   14.18054   -2.47900
      H1    -9.94629   13.38096   -2.08944
       H    -9.05718   14.97139    3.49340
       O    -9.12573   14.09243    3.12534
      H1    -8.39999   13.63331    3.53167
       H   -18.72990   17.68732   -1.97710
       O   -17.85118   17.55154   -1.75409
      H1   -17.71747   17.30971   -0.83998
       H   -13.68787   17.94329    0.81822
       O   -13.82840   17.95427   -0.16496
      H1   -14.29671   18.76957   -0.31308
       H   -11.17499   16.41779   -6.95402
       O   -10.24322   16.51178   -6.62085
      H1   -10.29592   16.37305   -5.68167
       H   -16.43066   18.27099    5.89287
       O   -16.45154   18.34432    6.91612
      H1   -17.43018   18.45578    7.12930
       H   -12.39995   14.94490   -7.41405
       O   -12.50735   15.54180   -8.24419
      H1   -13.12528   16.22937   -7.82356
       H   -19.21442   12.33611    0.00917
       O   -18.71948   12.92007    0.59107
      H1   -17.77406   12.67820    0.28886
       H   -14.99964   16.28493   -4.15874
       O   -14.17243   15.95430   -3.73158
      H1   -13.51061   16.54662   -4.16509
       H   -15.49731   12.12528   -0.42229
       O   -16.00468   12.77939    0.04911
      H1   -16.09031   13.46514   -0.64645
       H   -12.32377   15.36874    2.40953
       O   -12.14359   15.70640    3.29110
      H1   -12.80846   16.48438    3.22638
       H   -12.43713   18.52519   -6.27560
       O   -12.24022   19.47230   -6.45881
      H1   -11.29325   19.55059   -6.28431
       H   -10.34591   15.57335   -3.61068
       O   -10.06214   16.35372   -4.10811
      H1   -10.68462   17.00357   -3.78481
       H   -14.34802   17.72770    6.91558
       O   -13.63628   17.14169    7.22094
      H1   -13.94549   16.27836    6.90572
       H   -15.43777   11.18873    1.42301
       O   -15.51176   10.25242    1.63068
      H1   -15.77246   10.30628    2.57613
       H   -16.92246   20.00227    1.49947
       O   -17.77718   19.59390    1.78960
      H1   -17.57162   18.66185    1.53663
       H   -15.92438   16.30490   -1.64945
       O   -15.92296   15.29303   -1.70856
      H1   -15.10021   15.15063   -2.26439
       H    -9.55877   15.84186    4.89635
       O    -9.55529   16.44525    4.13880
      H1   -10.43360   16.23977    3.74633
       H   -10.68748   15.24646   -1.12729
       O   -11.17493   15.50186   -0.32983
      H1   -11.05514   16.45390   -0.46551
       H    -9.77781   19.15265    1.95267
       O   -10.60229   19.36635    2.36251
      H1   -10.37532   19.69455    3.24913
       H   -12.30443   13.76165   -5.39124
       O   -12.03951   13.80693   -6.31663
      H1   -11.02726   13.63814   -6.31573
       H   -16.30525   18.47855   -4.40383
       O   -15.87527   18.39561   -3.52504
      H1   -16.56701   17.93935   -2.99016
       H   -13.88492   13.22690    1.40166
       O   -13.72615   12.75068    2.18849
      H1   -12.76411   12.57467    2.16235
       H   -17.97623   17.95530    4.31671
       O   -17.09558   18.36535    4.28229
      H1   -17.40036   18.96805    3.61420
       H   -14.44788   17.98482   -7.10499
       O   -14.09024   17.25498   -6.59097
      H1   -14.91285   16.70209   -6.66428
       H    -7.89351   18.55388    4.91885
       O    -8.39366   19.02707    4.19732
      H1    -8.86815   18.17268    4.01911
       H   -16.46998   16.72091    1.27140
       O   -16.48782   17.39974    0.52704
      H1   -15.52878   17.51775    0.31394
       H   -10.30690   18.70483    5.18607
       O   -11.21420   18.88321    5.40463
      H1   -11.68910   18.02969    5.39970
       H    -9.59967   15.70642    0.67860
       O    -8.64531   15.53258    0.90549
      H1    -8.77415   14.86252    1.63888
       H   -14.48634   15.22178   -0.29677
       O   -13.85818   14.98951    0.37605
      H1   -12.99713   15.12422   -0.04865
       H   -17.84113   11.31354   -3.60430
       O   -17.25094   11.85841   -3.02661
      H1   -16.37244   11.73213   -3.28752
       H   -13.55465   10.43677   -0.74234
       O   -13.80209   11.37967   -0.78361
      H1   -13.50569   11.69128   -1.63619
       H   -12.03894   18.21658   -0.57403
       O   -11.29348   18.11103   -1.20279
      H1   -10.52904   18.67951   -0.76200
       H   -12.74995   13.67593    5.87761
       O   -12.09796   13.39504    6.55377
      H1   -11.28115   13.30720    6.08999
       H   -13.43717   14.22743   -4.01785
       O   -12.78123   13.51628   -3.81848
      H1   -13.44667   12.87845   -3.71858
       H    -9.53089   18.22237   -5.91553
       O    -9.42737   19.10407   -5.63446
      H1    -8.54791   19.34135   -5.96336

