150
frame 6 | Written by MDAnalysis XYZWriter (release 2.4.3)
       H    13.29515    5.32416   15.58673
       O    12.55099    4.78150   15.36119
      H1    11.85367    5.29042   15.10565
       H    17.27018    6.55516   10.91008
       O    16.40522    6.60317   10.52058
      H1    15.97653    5.88206   10.94690
       H    19.20095    6.64898    9.89239
       O    19.17816    6.28111   10.77820
      H1    19.46474    5.33851   10.75290
       H    10.62519    8.59189   17.58669
       O     9.69493    8.28420   17.61261
      H1     9.27675    8.74466   18.33544
       H    17.70077    0.06453   15.31393
       O    17.07767   -0.66122   15.32735
      H1    16.98839   -0.96492   16.20789
       H    12.43752   13.90458   16.28265
       O    12.93631   14.25671   17.08867
      H1    13.30626   13.44745   17.49626
       H    18.52123   11.37317   11.60708
       O    19.12477   11.65097   12.38375
      H1    19.20979   10.79669   12.90217
       H    19.13361    7.70332    8.08886
       O    18.95004    6.80031    7.99561
      H1    18.78582    6.67999    7.02293
       H    14.43400    1.43753   12.99857
       O    13.69814    1.83209   12.54362
      H1    13.17386    1.16961   12.07602
       H    14.33520    9.96467    9.52931
       O    14.91929    9.42310   10.15960
      H1    15.26110    8.67804    9.57613
       H    16.18557    2.86309   13.50506
       O    16.05980    3.35237   14.32784
      H1    15.26383    3.04934   14.76670
       H    12.43436    8.09199   14.63426
       O    11.88969    7.99749   13.87534
      H1    11.04480    8.20287   14.26264
       H    13.51011   10.21896   11.55476
       O    13.11915   10.28667   12.43713
      H1    12.22505    9.84332   12.31941
       H    19.63923    2.70868    9.74423
       O    19.77451    3.42740    9.08164
      H1    19.41814    3.08740    8.19372
       H    16.63580   14.63375    9.06410
       O    16.67250   15.47471    9.53624
      H1    16.97714   15.16772   10.44886
       H    10.56766   14.08349   15.07708
       O    11.08845   13.26967   15.32349
      H1    11.76955   13.20071   14.61883
       H    14.93491   14.47829   17.92257
       O    15.44102   15.22558   18.04654
      H1    14.86573   15.73789   18.64606
       H    15.11862    6.90896   18.76065
       O    15.92246    7.13043   18.35507
      H1    15.52125    7.65282   17.65937
       H    16.14665    1.70047    9.36991
       O    15.67994    2.53260    9.55211
      H1    14.75704    2.23138    9.72313
       H    17.00637   16.62989   16.39175
       O    16.68041   17.47426   15.97116
      H1    15.77876   17.31107   15.65595
       H    16.66099   11.89429    9.24776
       O    16.20053   12.35768    8.53481
      H1    16.84650   12.26202    7.82915
       H    19.23907   14.17498   14.14334
       O    18.69644   13.46789   14.56236
      H1    18.90916   12.74573   13.92528
       H    14.17909   11.27859   15.53902
       O    13.61417   10.47664   15.58050
      H1    13.45608   10.30581   14.65594
       H    15.67132    2.38488   18.37938
       O    16.38820    2.23156   18.99893
      H1    17.20839    2.26051   18.53428
       H    18.99043    8.79718   15.33112
       O    19.17488    9.38903   14.57638
      H1    19.97262    9.91685   14.74869
       H    14.34531   11.81214    8.75973
       O    13.65308   11.17734    8.44778
      H1    14.19623   10.70982    7.82037
       H    18.08145   14.33718   16.14771
       O    18.05783   15.15463   16.72117
      H1    17.19938   14.96475   17.14890
       H    16.46993    2.27735   11.15644
       O    16.52731    1.73148   11.98935
      H1    16.89389    0.87362   11.67370
       H    19.61965    2.67176   18.48304
       O    19.13768    1.92502   18.08578
      H1    19.14931    1.19975   18.73797
       H    14.03012   12.22184   19.65170
       O    14.26155   12.36145   18.70421
      H1    15.17423   12.01472   18.71703
       H    15.63810   14.66990   13.18840
       O    14.88908   14.68707   13.82925
      H1    14.31766   13.92469   13.54193
       H    17.46465   12.28039   18.25528
       O    16.83809   11.73293   17.72776
      H1    16.50994   12.08733   16.89330
       H    19.23388   13.57579   17.81903
       O    19.13764   13.08522   18.64639
      H1    19.22207   13.76585   19.37369
       H    14.45751    5.92212   12.37282
       O    14.60390    5.03053   12.06549
      H1    15.27403    4.53630   12.61669
       H    17.87784   10.54779    9.71380
       O    17.31541   10.88117   10.49284
      H1    16.54689   10.35661   10.45706
       H    13.88496   16.08715   13.12370
       O    13.44238   16.78670   12.55165
      H1    13.72704   16.54306   11.67587
       H    14.23522    1.85607   16.31695
       O    13.93550    2.47739   16.96480
      H1    13.40426    3.06221   16.44380
       H    13.78191   16.03475   15.80197
       O    13.72046   16.99508   15.75076
      H1    13.38363   17.28231   16.59625
       H    17.99674    6.86328   16.36442
       O    18.78830    7.38776   16.33112
      H1    18.94660    7.55643   17.29062
       H    14.29493    8.50442   12.68481
       O    15.01648    7.84268   12.59869
      H1    15.39113    8.01300   11.72191
       H    11.54443    3.89800   11.10581
       O    11.61512    4.63496   11.69311
      H1    12.58136    4.65794   11.86363
       H    16.74536    4.95430   15.38344
       O    16.46659    5.62666   15.99879
      H1    16.06004    5.28738   16.76184
       H    16.12610   12.02610   14.83413
       O    15.57304   12.34255   15.54547
      H1    15.28123   13.20495   15.26400
       H    12.02554   13.28339   12.65259
       O    12.67785   12.84598   13.20627
      H1    12.59465   11.95230   12.91622
       H    14.76917    6.52269    8.04634
       O    15.67317    6.24731    7.84538
      H1    16.03740    6.02406    8.70509
       H    17.06192   16.01249   12.77850
       O    17.07075   15.13887   12.43393
      H1    17.67981   14.63544   13.03547
       H    14.77319    7.20729   15.70232
       O    14.06753    7.78707   15.99499
      H1    14.12634    8.62978   15.62784
       H    17.41908   10.13447   18.21738
       O    17.74063    9.23977   18.50761
      H1    16.94567    8.79410   18.89650
       H    12.70495    9.58546   17.34297
       O    12.13649    9.29842   18.04773
      H1    12.63668    8.53384   18.35377
       H    19.12003    1.60460   16.26422
       O    18.74624    1.42766   15.39489
      H1    18.08380    2.11204   15.27167

