150
frame 0 | Written by MDAnalysis XYZWriter (release 2.4.3)
       H    11.57653  -13.17340   -4.22231
       O    10.76888  -13.20212   -4.74891
      H1    10.87376  -12.43933   -5.29914
       H    15.89134  -15.29118   -1.99341
       O    16.37836  -15.57496   -2.80029
      H1    17.26191  -15.79384   -2.40656
       H    10.34647  -15.52530   -2.71313
       O    10.73512  -15.66302   -1.87425
      H1    11.01453  -16.57268   -1.93084
       H     8.21954   -8.53123   -1.29095
       O     8.94569   -8.99006   -0.72680
      H1     8.52115   -9.88560   -0.55162
       H     5.73250  -14.80019   -4.18527
       O     5.03164  -14.16858   -4.29330
      H1     5.51500  -13.33709   -4.41482
       H    14.92704   -8.03284   -7.17341
       O    15.09609   -8.99814   -7.02396
      H1    14.69396   -9.17788   -6.16533
       H    13.62986  -10.46770   -9.05475
       O    14.35740  -11.02434   -8.70189
      H1    14.75226  -10.34487   -8.07999
       H    12.19611  -19.12436   -2.58506
       O    12.05092  -18.25108   -2.15702
      H1    12.88333  -17.80694   -2.35967
       H    11.62788  -11.62285    0.46699
       O    11.83348  -11.16597   -0.36369
      H1    11.16248  -11.50923   -0.97689
       H    12.97520   -8.75717   -4.20585
       O    13.67927   -9.13258   -3.58292
      H1    13.24306   -9.99878   -3.39098
       H    12.60131   -8.05385   -0.71456
       O    12.65359   -7.44546   -1.48055
      H1    13.08127   -8.02688   -2.12350
       H     9.50566  -15.84651   -5.01057
       O    10.43083  -16.01555   -5.25274
      H1    10.96539  -15.21455   -5.05122
       H     9.31728  -16.38107   -7.78449
       O    10.25564  -16.75160   -7.83981
      H1    10.55027  -16.71075   -6.88267
       H     9.21448  -11.99128   -7.14238
       O     8.33997  -12.09366   -6.64787
      H1     7.75599  -11.60287   -7.23304
       H    11.83254   -9.19490   -9.41426
       O    12.29097   -9.78748  -10.05299
      H1    11.66572  -10.52179  -10.09701
       H    10.76764  -16.86303    0.76720
       O    10.40584  -16.06338    1.22450
      H1    10.32641  -15.36082    0.54225
       H     7.89025  -16.41252   -3.86365
       O     7.72131  -15.83803   -4.65379
      H1     7.25609  -16.50745   -5.29238
       H    10.95251   -6.80689   -1.80240
       O    10.08463   -6.50309   -1.58077
      H1     9.75838   -7.04381   -0.88919
       H    17.21625  -12.39734   -7.30257
       O    17.58886  -11.67702   -7.92209
      H1    17.85678  -12.15137   -8.73713
       H    16.40140  -13.26499   -3.55806
       O    15.53454  -12.83493   -3.70398
      H1    15.84985  -11.92497   -3.83549
       H     7.42898  -17.04596   -0.75208
       O     7.46844  -16.46155   -1.48038
      H1     6.81639  -15.83084   -1.19042
       H    13.55610   -9.18496    1.32640
       O    12.67342   -8.89097    0.96380
      H1    12.41499   -9.68499    0.50341
       H    12.16758  -11.57570   -7.05307
       O    11.29955  -11.15122   -6.87033
      H1    11.58834  -10.31400   -6.41394
       H    13.78740  -12.59114   -3.35982
       O    12.85357  -12.27222   -3.33278
      H1    12.60815  -12.56722   -2.38796
       H     8.19525  -14.26280   -7.20247
       O     8.08424  -15.10560   -7.58018
      H1     7.36875  -15.49551   -7.07489
       H    10.93467  -17.97607  -10.38427
       O    10.50233  -17.07256  -10.46705
      H1    10.43197  -16.71242   -9.59975
       H    10.08294   -7.75808   -7.92953
       O    10.36867   -8.05614   -8.79778
      H1    10.34530   -7.19530   -9.26270
       H    10.54266   -5.51706   -5.42962
       O    11.48333   -5.85391   -5.29165
      H1    11.74487   -5.11213   -4.63043
       H     9.25447   -9.26787  -10.61466
       O     8.34025   -9.46060  -10.69083
      H1     7.98647   -8.85377  -11.36718
       H    14.65969  -15.80788    0.48576
       O    14.86215  -15.48339   -0.41834
      H1    13.98345  -15.10388   -0.58468
       H     8.51287   -9.67489   -4.40124
       O     7.85059   -9.76437   -5.08015
      H1     8.19015  -10.39388   -5.77136
       H    11.03938   -8.78288   -4.66728
       O    11.68329   -8.63661   -5.36761
      H1    11.63487   -7.70781   -5.57664
       H     9.60472  -12.87088   -3.29943
       O     9.07890  -12.52422   -2.59494
      H1     8.10825  -12.62367   -2.93333
       H    10.54935  -18.80946   -3.90313
       O     9.58145  -18.81189   -3.84790
      H1     9.44173  -19.36460   -4.61331
       H    15.04280  -15.35739   -5.44541
       O    14.81082  -14.42948   -5.64522
      H1    14.93848  -13.94639   -4.81299
       H    16.81205   -9.53777   -4.40011
       O    16.33056  -10.12471   -3.82235
      H1    15.70432   -9.44866   -3.50246
       H    11.71193  -13.81684   -8.34067
       O    10.75435  -13.86884   -8.56478
      H1    10.75956  -14.83426   -8.33246
       H     9.36521   -9.84000   -2.33631
       O     9.85871  -10.10377   -3.15041
      H1     9.59569  -11.05154   -3.16658
       H     6.23788   -9.40623   -3.10221
       O     5.48274   -9.90542   -3.46333
      H1     4.86662   -9.72760   -2.74825
       H    15.85519  -14.51217   -7.41830
       O    16.80224  -14.31444   -7.36531
      H1    17.00924  -14.05692   -8.26005
       H     9.49256  -13.21800    0.54845
       O    10.07777  -13.33278   -0.20005
      H1     9.44540  -13.25995   -0.95033
       H    13.66587  -12.77870   -8.24122
       O    13.34149  -13.57800   -7.82863
      H1    13.85143  -13.80601   -7.07135
       H     6.67131  -11.41648   -4.53108
       O     6.89520  -12.30646   -4.32608
      H1     7.60659  -12.49556   -4.91241
       H    12.70177  -13.28030   -0.47553
       O    12.81933  -14.01348   -1.06838
      H1    11.93587  -14.42842   -1.08185
       H     6.55770  -12.72266   -9.38969
       O     5.97282  -12.78241   -8.64544
      H1     6.35060  -13.53403   -8.26885
       H     7.15073   -9.97340   -8.83143
       O     6.90475   -9.95062   -7.94672
      H1     5.96427  -10.00844   -8.16151
       H     6.55095   -7.74853   -7.35443
       O     7.28098   -7.43308   -6.83645
      H1     7.63625   -8.17722   -6.43278
       H    15.98474  -16.45813   -4.14024
       O    15.51297  -16.95544   -4.86197
      H1    15.12378  -17.71087   -4.35525
       H    11.04753  -12.86042  -10.13588
       O    10.81768  -12.49751  -10.99349
      H1    11.40309  -12.93788  -11.62512
       H     8.75263  -12.61674  -10.45914
       O     7.86988  -12.27375  -10.72347
      H1     7.97132  -11.32354  -10.63337

