150
frame 0 | Written by MDAnalysis XYZWriter (release 2.4.3)
       H     7.43718  -16.78683  -10.63452
       O     7.87115  -17.44573  -11.16166
      H1     8.79648  -17.32221  -10.86479
       H     5.73250  -14.80019   -4.18527
       O     5.03164  -14.16858   -4.29330
      H1     5.51500  -13.33709   -4.41482
       H    -0.91714  -15.17438  -11.48663
       O    -1.88305  -15.05977  -11.40057
      H1    -2.15866  -14.48347  -12.12355
       H     8.04777  -19.97717  -13.38668
       O     7.49088  -20.02272  -12.65285
      H1     7.60930  -19.15719  -12.24367
       H     1.87424  -15.11866  -10.26591
       O     0.93040  -15.02547   -9.99938
      H1     1.07675  -14.73924   -9.01671
       H     6.67395  -17.85099  -14.85826
       O     5.75458  -17.91111  -15.05202
      H1     5.47459  -17.08561  -14.62265
       H     5.57889  -17.19377   -8.87289
       O     5.43619  -16.94175   -9.79947
      H1     4.98542  -16.03127   -9.73184
       H     6.43652  -19.57856   -8.42554
       O     7.13072  -18.95980   -8.34235
      H1     7.63602  -19.25137   -9.16760
       H    -1.80858  -16.58882  -13.70782
       O    -1.28098  -16.09601  -14.43553
      H1    -0.45603  -16.05122  -13.97223
       H     4.50571  -15.02879  -14.23322
       O     4.71564  -15.73445  -13.61107
      H1     5.38272  -15.25416  -13.09832
       H    -1.83676  -10.08409   -8.97288
       O    -1.52877   -9.95605   -9.88590
      H1    -0.62318  -10.26615   -9.87910
       H     2.60603  -19.08201   -4.53423
       O     1.70179  -18.88466   -4.76278
      H1     1.69623  -18.46877   -5.64297
       H     2.04915  -12.95138  -12.49683
       O     3.06358  -12.85889  -12.38315
      H1     3.29813  -13.07042  -13.32894
       H     0.87029  -14.70761  -16.96120
       O     0.29527  -14.27432  -16.33357
      H1    -0.44361  -14.19200  -16.93092
       H     9.31728  -16.38107   -7.78449
       O    10.25564  -16.75160   -7.83981
      H1    10.55027  -16.71075   -6.88267
       H     9.31016  -17.03471  -13.52551
       O     8.42207  -16.88283  -13.97604
      H1     7.83365  -16.85721  -13.19252
       H     9.21448  -11.99128   -7.14238
       O     8.33997  -12.09366   -6.64787
      H1     7.75599  -11.60287   -7.23304
       H     3.39584  -14.44500  -11.58493
       O     3.44728  -15.21076  -10.97435
      H1     3.45959  -15.97568  -11.54381
       H     3.61665  -12.25354   -8.62817
       O     2.69255  -12.06919   -8.34363
      H1     2.83319  -11.95778   -7.38716
       H     1.52197  -17.21758  -14.03735
       O     1.05317  -16.82397  -13.34499
      H1     1.67663  -16.20760  -12.93975
       H     1.94566  -10.62437  -10.53664
       O     1.38317   -9.88647  -10.71545
      H1     1.96999   -9.06880  -10.76875
       H     1.97195  -13.69083   -7.66406
       O     1.75689  -14.61275   -7.54226
      H1     0.87128  -14.46763   -7.24680
       H     5.49687  -14.58587  -11.51646
       O     6.45543  -14.70346  -11.79378
      H1     6.90814  -13.87483  -11.70364
       H    -1.85277  -14.18891  -14.28644
       O    -1.96217  -13.45439  -13.62796
      H1    -1.07518  -13.28476  -13.29848
       H     8.19525  -14.26280   -7.20247
       O     8.08424  -15.10560   -7.58018
      H1     7.36875  -15.49551   -7.07489
       H    -0.18365  -17.69837   -9.77246
       O    -0.70434  -17.33807   -9.04868
      H1    -0.13330  -16.61416   -8.83538
       H     2.44562  -16.27769  -16.88856
       O     2.24339  -15.72590  -17.71636
      H1     3.09456  -15.29557  -17.91945
       H     4.37480  -15.63044   -5.37511
       O     3.62929  -16.12887   -5.85920
      H1     3.04966  -15.41598   -6.15677
       H     3.48415  -17.50784  -14.67812
       O     2.87649  -17.11069  -15.32895
      H1     2.66130  -17.89337  -15.90859
       H     2.75828  -18.45271  -10.99109
       O     3.57963  -18.49959  -11.49652
      H1     4.13591  -18.20881  -10.72350
       H     0.14407  -19.54252  -11.14254
       O     0.61666  -18.73577  -11.00357
      H1     0.45121  -18.30287  -11.85288
       H     6.54415  -13.36080  -15.56601
       O     6.05158  -12.91492  -14.81644
      H1     6.82269  -12.49031  -14.41711
       H     2.54819  -14.88965  -14.75124
       O     3.06918  -14.18328  -15.06893
      H1     2.45870  -13.78939  -15.70644
       H     7.81116  -10.70773  -13.40219
       O     8.49613  -11.39494  -13.45429
      H1     8.72923  -11.55575  -12.54742
       H     1.65884   -9.02997  -14.57674
       O     2.30779   -9.72387  -14.46401
      H1     1.75894  -10.43121  -14.10092
       H     5.25382  -17.21359  -17.01311
       O     5.44970  -16.95536  -17.90730
      H1     6.40875  -17.23966  -17.95578
       H     0.14552  -12.12203  -12.12653
       O     0.48397  -13.04704  -12.12527
      H1     0.63972  -13.04884  -11.18238
       H    -1.45980  -15.06596   -6.34782
       O    -1.03329  -14.37796   -6.85903
      H1    -1.81922  -14.02597   -7.29405
       H     3.58601   -9.25906   -9.37710
       O     3.75219   -9.59019   -8.42294
      H1     3.41287  -10.50086   -8.25908
       H    -0.74962  -17.20708  -15.58163
       O    -0.23576  -17.83755  -16.19947
      H1    -0.13113  -18.55058  -15.50501
       H     6.57698  -17.66887   -7.17685
       O     6.11491  -16.92426   -6.77105
      H1     5.20241  -17.19864   -6.68927
       H     6.55770  -12.72266   -9.38969
       O     5.97282  -12.78241   -8.64544
      H1     6.35060  -13.53403   -8.26885
       H    -0.93307   -9.99821  -13.04169
       O    -0.15094  -10.51607  -12.96213
      H1     0.41505  -10.06877  -12.27704
       H     7.15073   -9.97340   -8.83143
       O     6.90475   -9.95062   -7.94672
      H1     5.96427  -10.00844   -8.16151
       H     0.12613  -18.52896   -8.00522
       O     0.52871  -19.25883   -7.49808
      H1     1.07205  -19.70431   -8.15512
       H     4.31460  -14.47657  -16.64969
       O     4.60950  -14.25578  -17.53358
      H1     5.24445  -14.96114  -17.83256
       H     4.54013  -11.25892  -15.90470
       O     4.51744  -10.32194  -15.86298
      H1     3.67148  -10.24430  -15.41155
       H     8.75263  -12.61674  -10.45914
       O     7.86988  -12.27375  -10.72347
      H1     7.97132  -11.32354  -10.63337
       H     4.19572  -11.35255  -11.54204
       O     4.72550  -10.57143  -11.48806
      H1     5.53458  -10.99987  -11.78346
       H    -2.83710  -18.27102  -12.27939
       O    -3.02922  -17.36149  -12.55631
      H1    -2.56068  -16.74311  -11.94044

