150
frame 0 | Written by MDAnalysis XYZWriter (release 2.4.3)
       H     6.51710   13.27345   13.18577
       O     6.24050   12.61813   13.82809
      H1     7.11426   12.22297   14.00660
       H     7.28804   15.66695    5.41969
       O     7.64446   15.20365    4.66187
      H1     7.82456   14.32135    5.02145
       H    10.24802   14.51707   14.05314
       O     9.43695   14.13556   13.63104
      H1     8.80554   14.56125   14.25599
       H    10.54473   10.51309   11.81305
       O     9.73330   10.35289   12.33996
      H1    10.02467    9.49345   12.71913
       H     6.79572   11.37506   17.15806
       O     7.48938   11.63582   17.79319
      H1     7.01455   11.38816   18.64541
       H     2.79336   17.59827   15.39325
       O     3.61688   18.11520   15.35022
      H1     3.58891   18.42582   14.43259
       H     2.42900    9.63162   13.75483
       O     3.16504   10.13609   13.39699
      H1     3.34536   10.80387   14.03839
       H     2.85710   13.19841   13.43937
       O     3.01722   14.10282   13.14265
      H1     3.11230   14.06110   12.16617
       H     4.77094   17.14808    6.84593
       O     5.54822   17.36952    6.36447
      H1     5.97489   18.04194    6.89648
       H     3.21475   19.63656   12.95309
       O     4.07603   19.28378   13.02993
      H1     4.10213   18.59285   12.40903
       H    11.44549   15.98797    6.63887
       O    11.87046   16.63501    6.03994
      H1    11.73171   17.41069    6.62977
       H     9.13263   11.26403   13.68309
       O     8.78258   11.82120   14.42465
      H1     9.13029   12.67338   14.08659
       H     9.61167   16.16219   11.48228
       O    10.21121   16.90279   11.46055
      H1    10.07228   17.21346   12.42140
       H     8.73079   17.58438   14.22189
       O     9.62953   17.27345   14.02913
      H1    10.11059   18.05383   14.37609
       H    11.15302   14.86632   16.06061
       O    11.39400   15.17731   15.16791
      H1    10.92163   15.95307   15.15220
       H     7.32529    8.41903   13.35752
       O     7.92422    7.67887   13.15672
      H1     8.51266    7.78485   13.88524
       H     8.44944   12.55326    6.54987
       O     9.02758   12.87009    5.87823
      H1     9.59914   13.47670    6.43466
       H     6.22114   15.40557   15.06459
       O     7.17073   15.30930   15.10027
      H1     7.40753   16.19887   14.82518
       H     6.34980    8.64475    9.25904
       O     5.69946    9.23064    8.91218
      H1     4.94460    9.32120    9.61671
       H    10.05717   11.33463   15.46578
       O    10.81783   10.95369   16.07211
      H1    10.19955   10.29027   16.49326
       H     2.83399   12.35863    7.78476
       O     2.01896   11.85877    7.90721
      H1     1.90678   11.59130    6.92761
       H     8.91325   13.54998    9.71771
       O     9.22007   14.50598    9.86593
      H1     8.41534   15.06379    9.82677
       H    14.19222   14.36008   11.28595
       O    14.59838   15.19540   11.59468
      H1    14.43382   15.03898   12.56875
       H     6.62917   15.98890    7.60046
       O     7.06799   15.20511    7.93131
      H1     6.49779   14.52738    7.55553
       H     5.21194   12.80134    7.71543
       O     4.31967   13.13610    7.77036
      H1     4.14110   13.55730    6.87952
       H     6.62096   18.57862   15.28514
       O     6.88415   17.98774   14.52494
      H1     6.09910   17.85618   14.04820
       H    10.21026   11.94449    9.65891
       O     9.25960   12.04521    9.37075
      H1     8.84290   11.87764   10.25181
       H     8.98349   18.38341    8.78577
       O     8.52708   18.00169    9.57056
      H1     9.11394   17.59549   10.17339
       H     5.31192   19.23203    9.45163
       O     5.63349   18.42265    8.98669
      H1     6.59713   18.33063    9.37954
       H    10.11408   14.69499    8.09178
       O    10.68331   14.55279    7.33271
      H1    11.50084   14.24219    7.76421
       H    10.50130   14.04561   17.75598
       O    11.19052   13.54404   17.30744
      H1    10.75487   12.77993   16.95020
       H     7.87033   10.04683   15.29788
       O     8.08051    9.14881   15.72784
      H1     7.48201    8.44557   15.46112
       H     1.73348   13.18648   10.43245
       O     1.73446   14.13152   10.42617
      H1     1.32925   14.37924    9.53692
       H     6.70246   11.10988    7.64949
       O     6.72532   11.93056    7.12014
      H1     6.62183   11.59478    6.25662
       H     4.10576   14.47241   17.57014
       O     4.81332   13.96020   17.95069
      H1     5.57818   14.38644   17.52333
       H     5.97077   11.78856   10.67017
       O     6.90347   11.88794   10.78508
      H1     7.09993   11.86086    9.81065
       H     4.46503   14.15944    9.31174
       O     4.22728   14.38372   10.24841
      H1     3.29217   14.36362   10.13733
       H     2.38342   12.63570   16.14753
       O     3.11401   12.38306   15.61604
      H1     3.70413   13.16805   15.61996
       H    14.16790   17.88484   10.44588
       O    13.50002   18.26092    9.81091
      H1    12.72834   17.93579   10.26788
       H    12.08282   10.91613   13.08050
       O    12.77384   10.41176   13.54731
      H1    12.60890   10.55719   14.45688
       H     7.92412    6.74498   10.54735
       O     7.89858    7.69005   10.29653
      H1     7.79175    8.17271   11.10646
       H     6.04328   14.50618   11.29954
       O     6.65324   14.92922   11.87830
      H1     7.56511   14.65226   11.60318
       H     4.64775   16.62174   11.29448
       O     4.47047   16.85699   12.21133
      H1     4.53451   15.94123   12.52186
       H     4.97495    9.38547   12.82586
       O     5.86816    9.58895   13.11116
      H1     5.72647   10.48901   13.45702
       H    13.26816   15.52135   14.30666
       O    14.21232   15.34610   14.46382
      H1    14.19162   14.37640   14.58719
       H     3.73244   15.09566   14.54885
       O     4.21900   15.46513   15.29845
      H1     4.07502   16.43575   15.12863
       H     9.39989    9.71974    6.62180
       O     8.84606    9.59490    7.46942
      H1     9.28871   10.27813    7.96583
       H     2.47854   10.25051   10.29713
       O     1.99684   11.08568   10.45924
      H1     2.19362   11.43457    9.59874
       H    12.32594   12.07887   10.97744
       O    11.64930   11.37333   10.73164
      H1    12.27292   10.59943   10.51900
       H     7.54963   14.72196   16.75928
       O     7.35670   14.48137   17.69513
      H1     7.53433   13.55058   17.60793

