150
frame 11 | Written by MDAnalysis XYZWriter (release 2.4.3)
       H    19.33862  -11.14738   12.52902
       O    19.21503  -11.39385   11.64495
      H1    18.68331  -12.17002   11.71513
       H    15.59975  -11.45146   12.84451
       O    15.20982  -12.10575   13.51017
      H1    14.41625  -12.33479   13.08956
       H    14.03599  -15.57925   12.51051
       O    13.58895  -15.92587   11.74878
      H1    12.73173  -16.16201   12.06844
       H     7.72349  -17.75112   16.50777
       O     8.39491  -17.65614   15.78715
      H1     8.46895  -16.67273   15.71167
       H     9.19192  -12.91538   13.07083
       O     9.89097  -13.44372   12.66694
      H1     9.94901  -14.23861   13.20231
       H    17.24632  -14.73726   18.21457
       O    16.91819  -15.57689   17.87581
      H1    17.54971  -16.17795   18.27209
       H    14.18380  -19.52605   15.54390
       O    14.08889  -18.58680   15.48210
      H1    13.36248  -18.50592   14.85140
       H     8.50327  -14.67845   17.54597
       O     8.85901  -14.74254   18.41114
      H1     9.57838  -14.13617   18.34624
       H    12.82655  -14.44368   15.03950
       O    12.01838  -14.16586   15.47593
      H1    11.24257  -14.48108   14.91812
       H    12.23569  -12.52921   15.06212
       O    12.63609  -11.65202   15.16498
      H1    12.81804  -11.35943   14.27245
       H    17.23868  -17.39745   14.45728
       O    17.65373  -17.66874   13.64924
      H1    18.60846  -17.61318   13.84618
       H    17.43556  -10.66176   11.62976
       O    16.51377  -10.39830   11.60558
      H1    16.08697  -11.07656   11.01571
       H    11.86141  -18.16149   13.30923
       O    11.89763  -18.66787   14.13958
      H1    12.49210  -19.41994   13.92790
       H    14.22398  -11.77274   15.86563
       O    14.88658  -11.75501   16.59192
      H1    14.86624  -10.84215   16.94358
       H    14.59525  -12.16211    9.23668
       O    14.00557  -12.08712    9.98047
      H1    13.49582  -12.88123   10.03849
       H    11.33697   -6.99636   14.60931
       O    11.73120   -7.86001   14.51183
      H1    11.00629   -8.50738   14.32100
       H    11.06790  -10.66343   15.92527
       O    10.30820  -10.58020   16.54516
      H1    10.26989  -11.32646   17.17249
       H    11.21660   -9.69525   17.67858
       O    11.61382   -9.05995   18.27556
      H1    11.19786   -9.22354   19.13466
       H     9.98989  -11.79371   19.52693
       O    10.21339  -12.17196   18.68268
      H1    11.07470  -12.49362   18.84448
       H    13.75871   -7.18778   16.37750
       O    14.16631   -7.19910   15.49266
      H1    13.40440   -7.51744   14.92592
       H    16.42415  -11.98238   16.05464
       O    17.37844  -11.89218   16.04158
      H1    17.62543  -11.08089   15.52213
       H    19.34220   -9.76460   15.17169
       O    18.65588   -9.95901   14.52534
      H1    18.08269   -9.21853   14.50772
       H    18.63331  -13.16370   15.41329
       O    19.33696  -13.66663   15.00860
      H1    19.07233  -13.92139   14.11924
       H    11.47822  -12.55052   12.73501
       O    12.11742  -11.88777   12.46301
      H1    12.22830  -12.04933   11.51067
       H     8.64263  -15.72492   14.14029
       O     9.00540  -15.23347   14.90999
      H1     8.28701  -14.54223   15.07174
       H    10.85271  -17.72453   11.58541
       O    11.00349  -16.81367   11.92058
      H1    10.47700  -16.24554   11.37896
       H    10.34651  -18.36785   17.82313
       O    10.10192  -17.90466   18.62164
      H1     9.72733  -17.08980   18.38479
       H    16.99457  -19.03829   12.88573
       O    16.82390  -19.82621   12.35401
      H1    15.84358  -19.91493   12.47896
       H    14.76887  -15.40880   14.33615
       O    14.33993  -14.62464   14.08887
      H1    15.03665  -14.01459   14.08440
       H    15.94116  -18.52851    9.94757
       O    16.37024  -19.40581    9.85172
      H1    16.51380  -19.62999   10.73622
       H    14.66221   -8.08375   18.71808
       O    13.86236   -7.58056   18.46109
      H1    13.11232   -8.20215   18.47105
       H    13.33659  -13.92832   18.89052
       O    13.14846  -12.99368   18.80138
      H1    13.76121  -12.67153   18.08907
       H    18.35324   -8.69892   17.61158
       O    18.35706   -7.76086   17.79691
      H1    18.99162   -7.44508   17.17151
       H     9.32822  -19.48565   16.30634
       O    10.31070  -19.50066   16.38943
      H1    10.58601  -19.03038   15.59903
       H    14.39443   -9.12262   11.26859
       O    13.60858   -9.70688   11.25754
      H1    13.86551  -10.54488   10.78399
       H    13.51775  -17.51163   11.18002
       O    13.73957  -18.38842   10.82283
      H1    13.14541  -18.38798   10.08193
       H    11.93617  -14.30330    9.21940
       O    12.25630  -14.00559   10.08467
      H1    12.72267  -14.73955   10.59720
       H    17.09766  -13.03587   13.13442
       O    17.83649  -13.52165   12.59813
      H1    17.42303  -14.35330   12.26762
       H    17.61974  -17.04326    8.56819
       O    16.97489  -16.31186    8.78519
      H1    17.13269  -15.97079    9.68940
       H    16.33084  -16.06380   16.06722
       O    15.88044  -16.52602   15.36649
      H1    15.34222  -17.25642   15.76739
       H    17.13222   -7.12472   14.22956
       O    16.63652   -7.96581   14.17493
      H1    15.79790   -7.78468   14.62683
       H    15.44693   -5.96287   16.43655
       O    15.94678   -5.19367   16.87266
      H1    16.67147   -4.91641   16.31784
       H     8.90988  -11.46854   15.52067
       O     8.38638  -11.83202   14.81907
      H1     7.51570  -11.46923   14.89256
       H    17.56728  -12.36451    8.67802
       O    16.90920  -11.90203    9.18798
      H1    16.55107  -11.19055    8.66568
       H    19.18678   -6.85253   13.75900
       O    18.85166   -5.95930   13.61494
      H1    19.54154   -5.43129   13.98810
       H    18.76647  -11.05394   18.55019
       O    17.87384  -10.69833   18.35876
      H1    17.65261  -11.01141   17.47578
       H    17.00637  -16.41673   11.86361
       O    17.32546  -15.62934   11.30844
      H1    18.25015  -15.84071   11.14941
       H    14.78975   -7.08690   11.65522
       O    15.39196   -7.75133   11.40312
      H1    15.90121   -8.12835   12.18592
       H    18.22497   -6.13579   18.80521
       O    17.67563   -5.34332   19.03016
      H1    16.96010   -5.48686   18.39056
       H    13.45106  -18.41101   17.71832
       O    13.14388  -18.68445   18.58668
      H1    12.38837  -18.13352   18.76288

