150
frame 5 | Written by MDAnalysis XYZWriter (release 2.4.3)
       H     5.81682  -19.05641  -15.99917
       O     4.86862  -19.11631  -15.91458
      H1     4.56616  -19.98992  -15.63244
       H     6.23089   -7.58783  -12.54539
       O     5.98125   -8.48132  -12.24190
      H1     6.79855   -8.95377  -12.15490
       H     3.54283  -17.14531  -10.95996
       O     3.16495  -18.07321  -10.86149
      H1     2.99107  -18.34447  -11.77840
       H     0.48890  -19.08472  -16.59151
       O     1.34272  -18.77030  -16.44176
      H1     1.72852  -19.28713  -15.73777
       H     9.32237  -15.03450  -17.01502
       O    10.23509  -14.78941  -16.87732
      H1    10.69566  -14.93013  -17.78188
       H     0.61111  -10.04461  -11.34687
       O     0.97706   -9.47538  -12.01961
      H1     0.63489   -9.69324  -12.93025
       H     5.81773  -16.36295  -16.60081
       O     5.75940  -15.79876  -15.79870
      H1     6.57830  -15.93329  -15.36081
       H     6.76700  -13.75246  -11.80329
       O     5.95361  -13.61429  -12.32015
      H1     5.70659  -12.66873  -12.20522
       H     4.02777  -17.00217  -18.19173
       O     4.90427  -17.41926  -18.00415
      H1     4.68950  -17.98265  -17.21222
       H    -1.97604  -11.39668  -16.75410
       O    -1.83719  -12.29372  -16.42890
      H1    -1.19628  -12.70486  -16.98811
       H     4.34887  -13.11593  -14.59128
       O     4.08698  -13.67589  -15.35837
      H1     4.54067  -14.52535  -15.18242
       H     3.87799  -10.17567   -8.89404
       O     3.48158   -9.37552   -8.51638
      H1     3.89010   -8.55297   -8.89005
       H     6.62230  -16.85332   -9.02689
       O     6.55697  -16.05186   -9.54196
      H1     6.04384  -16.28952  -10.34131
       H     9.73247  -13.31181  -17.66920
       O     9.41603  -12.60125  -18.26871
      H1     8.48271  -12.70711  -18.35262
       H     0.42316  -15.90953  -12.65191
       O    -0.26172  -16.58773  -12.45660
      H1     0.13145  -16.93503  -11.59850
       H     8.16898  -10.66050  -13.64847
       O     8.77497  -11.07329  -14.29374
      H1     8.22658  -10.95990  -15.08507
       H    -1.53745  -14.90629  -18.03138
       O    -1.06052  -14.10672  -18.41926
      H1    -0.54135  -14.61374  -19.13256
       H     3.48320  -11.06718  -15.70653
       O     2.84056  -10.33302  -15.61615
      H1     3.36360   -9.60700  -15.28952
       H     1.96692  -15.79317  -14.72759
       O     2.53061  -16.11713  -15.44599
      H1     2.19492  -16.94938  -15.83180
       H     3.20048  -15.66622  -17.31099
       O     2.85623  -15.75358  -18.19014
      H1     3.36269  -15.07280  -18.69839
       H     2.35045  -20.21490  -13.03899
       O     1.81030  -19.40235  -13.16844
      H1     2.39787  -18.67661  -13.42028
       H     2.55844  -12.29844   -8.45300
       O     3.26520  -12.05299   -9.07186
      H1     2.92757  -11.93579   -9.97516
       H     2.42767  -13.94014  -16.18719
       O     1.59169  -13.56820  -16.59755
      H1     1.24686  -14.35343  -17.03366
       H     7.89113  -17.75473  -15.64259
       O     7.65285  -18.66505  -15.87440
      H1     7.99137  -18.73935  -16.81011
       H     1.61860  -14.70162  -12.07396
       O     1.61405  -14.75907  -13.02817
      H1     0.97161  -14.10131  -13.37980
       H    -0.52877  -11.69278  -10.66886
       O     0.19773  -11.33026  -10.14600
      H1     0.81331  -12.01463  -10.40181
       H     4.30145  -18.25740  -14.15182
       O     3.74537  -17.69240  -13.62075
      H1     3.28504  -17.03231  -14.23531
       H     5.85017   -7.93110  -15.74952
       O     6.51953   -7.83927  -16.45723
      H1     6.35245   -7.02397  -17.02114
       H     5.25832   -8.92222  -17.99619
       O     4.69069   -9.12768  -18.75325
      H1     5.23061   -9.47451  -19.48573
       H     3.77366  -13.02694  -18.39479
       O     4.59402  -13.47963  -18.14704
      H1     4.59148  -13.56641  -17.20690
       H     4.49320  -16.35279  -12.53840
       O     4.64773  -15.86541  -11.74152
      H1     5.19604  -15.08344  -12.05979
       H     1.75771  -12.53859  -17.99170
       O     2.22231  -12.23861  -18.84229
      H1     1.97025  -11.30250  -19.00526
       H     4.92931  -10.28536  -12.15717
       O     4.85933  -11.12969  -12.49971
      H1     3.91048  -11.36956  -12.42402
       H     7.63570   -9.72393  -16.67524
       O     7.82072  -10.63797  -16.78152
      H1     8.55280  -10.71444  -17.42846
       H    10.33021  -12.20660   -9.97988
       O    10.51655  -11.87047  -10.88615
      H1     9.96787  -12.45869  -11.45772
       H    10.91584  -15.92549  -14.12960
       O    10.66071  -16.57520  -14.78931
      H1    10.56415  -15.95115  -15.47670
       H     4.21630   -7.45808  -14.33677
       O     4.67912   -8.21794  -14.56611
      H1     5.05500   -8.57086  -13.71278
       H     9.63675   -8.92108  -14.60460
       O     9.38940   -8.18477  -15.23463
      H1     8.47968   -7.98958  -15.08552
       H     7.11252  -11.33081  -18.10966
       O     6.91464  -11.98459  -18.82417
      H1     6.15370  -12.46828  -18.51817
       H     2.57523  -14.89038   -9.78273
       O     1.76053  -14.90314  -10.28463
      H1     1.16413  -15.22173   -9.57866
       H     3.67852  -13.75668   -8.74892
       O     3.95633  -14.66525   -8.53732
      H1     4.60927  -14.94670   -9.18733
       H     8.70202  -14.03796  -12.92065
       O     8.85480  -13.59292  -12.09227
      H1     9.17815  -14.27828  -11.45518
       H     7.75535  -19.06487  -12.86897
       O     7.14956  -18.37534  -12.44181
      H1     6.55771  -18.97198  -11.99327
       H    -0.92216  -12.89280  -14.74027
       O    -0.40886  -12.75840  -13.91630
      H1    -1.07572  -12.65149  -13.23126
       H    10.83153  -11.23004  -14.90977
       O    11.70030  -11.12046  -15.28084
      H1    11.64248  -11.20757  -16.19610
       H     8.99442   -9.71708  -11.52165
       O     8.15230   -9.97961  -11.82103
      H1     8.35648  -10.87283  -11.96228
       H     8.41193  -16.47402  -18.45720
       O     8.05423  -15.76706  -17.86178
      H1     7.44484  -15.25792  -18.43001
       H     0.10241  -10.90480  -14.77088
       O     0.14993   -9.94736  -14.75873
      H1     0.88228   -9.74380  -15.32442
       H     2.14730  -12.12553  -13.00774
       O     2.29425  -11.67106  -12.15302
      H1     1.84420  -10.76710  -12.17110
       H     8.98208  -16.34587  -14.13063
       O     8.09815  -16.01820  -14.01100
      H1     7.66565  -16.52635  -13.26345

