150
frame 2 | Written by MDAnalysis XYZWriter (release 2.4.3)
       H   -14.11610  -11.28138   10.09503
       O   -14.09948  -11.86514    9.35560
      H1   -14.11059  -11.23684    8.60144
       H   -15.85635  -17.26913   16.73917
       O   -15.44909  -17.50605   15.88062
      H1   -16.04091  -18.12513   15.43914
       H   -11.24208  -14.39765   14.79323
       O   -11.54555  -15.27460   14.50515
      H1   -12.33108  -15.01517   13.94149
       H   -17.83100   -9.82912   11.65890
       O   -17.86538  -10.73149   12.02754
      H1   -18.74577  -10.98183   12.41223
       H   -13.59036  -11.17205   15.73234
       O   -13.29599  -11.74338   16.43842
      H1   -12.98502  -11.19438   17.20925
       H   -15.40877  -14.69742   19.69951
       O   -15.75837  -14.29759   18.89382
      H1   -14.98451  -13.77617   18.69826
       H   -14.73908  -19.69885   11.44739
       O   -14.57367  -19.24275   12.30162
      H1   -13.71729  -18.80695   12.39312
       H   -17.36022   -7.40734   10.94260
       O   -17.75585   -8.28174   10.88912
      H1   -18.69608   -8.12658   10.63900
       H   -15.39893  -12.34713   16.51323
       O   -16.30334  -12.53465   16.71849
      H1   -16.31333  -13.43789   16.41136
       H   -12.70041  -17.93462   19.34423
       O   -12.81043  -18.88919   19.04405
      H1   -12.73627  -18.83982   18.01516
       H    -8.32780  -17.79974   13.88723
       O    -7.63566  -17.29323   13.45833
      H1    -7.93705  -17.35055   12.57161
       H   -16.86006   -9.60722   13.30727
       O   -16.57067   -9.04622   14.04513
      H1   -15.62129   -9.25702   14.24490
       H   -17.93661  -15.98333   10.10806
       O   -17.53886  -15.82380   11.00271
      H1   -17.82240  -14.92122   11.09662
       H   -11.17921  -14.48897    9.60284
       O   -10.92416  -15.10194   10.29861
      H1   -11.14291  -15.97534    9.98921
       H   -11.93916  -12.34244   15.31082
       O   -11.10342  -12.61424   14.96444
      H1   -11.19701  -12.75597   14.03213
       H   -16.74668  -16.36512    3.20121
       O   -16.00441  -16.59043    2.70713
      H1   -16.21246  -17.44671    2.36118
       H   -12.86811  -19.81258    5.43325
       O   -13.63400  -19.27976    5.14391
      H1   -13.27821  -18.40397    5.08093
       H   -15.70189  -12.92967    8.22494
       O   -16.10088  -13.83739    8.28714
      H1   -15.40163  -14.43721    8.53656
       H   -15.55357  -13.03244   13.29675
       O   -15.48352  -12.14839   12.96835
      H1   -16.43942  -11.91607   12.78387
       H   -11.76223  -17.62786   11.97715
       O   -12.11066  -17.80690   12.87563
      H1   -11.76669  -17.01779   13.34095
       H   -19.17748  -12.71194    6.25291
       O   -19.06540  -12.04841    6.88585
      H1   -18.09432  -11.95479    6.96246
       H   -18.40044  -13.07615   17.38219
       O   -19.37832  -13.06820   17.50981
      H1   -19.79175  -12.36429   16.98943
       H   -14.21401  -15.26194   12.68965
       O   -14.32970  -14.70185   13.48034
      H1   -15.16292  -14.91899   13.79018
       H   -14.44718  -19.00554    7.00651
       O   -14.16281  -18.47107    7.82062
      H1   -14.66154  -18.83937    8.59754
       H    -8.79520  -20.12709   16.20249
       O    -8.95917  -19.22928   16.34513
      H1    -8.39060  -18.98085   17.05820
       H   -10.10527  -12.92136   16.45792
       O    -9.79308  -13.36809   17.28834
      H1   -10.64010  -13.57080   17.80520
       H   -10.82761  -16.33239   15.90575
       O   -10.82604  -16.87958   16.67958
      H1    -9.92609  -17.24307   16.84870
       H   -19.38181  -19.09471    8.82735
       O   -18.48880  -19.36932    8.99303
      H1   -18.51949  -19.52933    9.97972
       H   -18.82740   -9.11681   17.04092
       O   -19.36369   -8.51744   17.58066
      H1   -19.68209   -9.14942   18.24736
       H   -20.26908  -19.37250   14.76582
       O   -20.02835  -19.55830   13.85749
      H1   -19.17082  -19.96959   13.70052
       H   -11.20817  -13.95008   11.74006
       O   -11.55280  -13.16769   12.16534
      H1   -12.48294  -13.48887   12.37088
       H   -16.65665   -7.76624   15.17694
       O   -16.54680   -6.86890   15.59257
      H1   -16.69784   -6.86446   16.58129
       H   -18.77990  -20.30264    4.69523
       O   -19.13011  -19.38620    4.92051
      H1   -19.54770  -19.03783    4.14009
       H   -13.66304  -18.04648   16.10774
       O   -13.00875  -18.75822   16.35460
      H1   -12.14784  -18.27437   16.42585
       H   -17.10480  -13.27104    9.44623
       O   -17.70519  -13.09291   10.19164
      H1   -17.48818  -12.21887   10.47693
       H   -18.51511  -17.57878    8.78848
       O   -18.84390  -16.68571    8.59853
      H1   -19.80163  -16.69070    8.74131
       H   -16.75964   -9.77902   17.40708
       O   -16.40783   -9.40322   18.20082
      H1   -16.51945   -8.47196   18.05193
       H   -15.40774  -16.88829    7.39730
       O   -15.66525  -16.21056    6.79594
      H1   -16.35044  -15.68878    7.21481
       H   -16.87597  -16.38289   18.59581
       O   -16.97396  -17.18598   18.07180
      H1   -17.95632  -17.34529   17.93178
       H   -17.99204  -17.70898    5.09385
       O   -17.73638  -16.75022    5.08463
      H1   -16.91320  -16.64279    5.49330
       H   -12.76571  -12.92912    8.83127
       O   -12.06361  -13.41168    8.40254
      H1   -12.53876  -13.98266    7.78413
       H   -18.64993  -17.07286   12.05485
       O   -19.50038  -17.22347   12.47570
      H1   -19.41745  -18.06666   12.89916
       H   -16.25083  -11.08528   19.23257
       O   -16.13466  -11.67047   20.03234
      H1   -16.23469  -12.58233   19.69639
       H   -13.99928  -13.83688    5.57445
       O   -13.65604  -14.65481    5.94810
      H1   -14.36980  -15.28567    6.18850
       H   -11.44544  -18.58526    9.51755
       O   -12.09293  -17.86039    9.66050
      H1   -12.71393  -17.93559    8.91026
       H   -17.21333  -11.26055   15.99053
       O   -17.90982  -10.58443   15.95476
      H1   -17.62234  -10.03673   15.16047
       H   -13.95395  -16.52560    3.71118
       O   -13.17643  -16.64568    4.26324
      H1   -13.29576  -15.85502    4.90002
       H   -15.74036  -16.05677   11.27500
       O   -14.81087  -16.32458   11.25667
      H1   -14.91645  -17.23545   11.41093
       H   -17.31260  -15.17451   15.03742
       O   -16.42206  -14.93200   15.18724
      H1   -15.95212  -15.72490   15.34114
       H   -14.14346  -10.96409   13.58126
       O   -13.91862  -10.29200   14.22041
      H1   -13.03126  -10.00734   14.01731

