150
frame 4 | Written by MDAnalysis XYZWriter (release 2.4.3)
       H     6.60123    3.92599   10.14977
       O     5.69900    3.60790   10.12598
      H1     5.62357    2.82156   10.59454
       H     2.94056    3.90438    8.70614
       O     3.31950    4.58223    9.25486
      H1     3.98192    4.17454    9.80359
       H     3.45347   -3.23142   14.01784
       O     3.89962   -4.11455   13.88599
      H1     3.27282   -4.77894   14.13893
       H     4.82433    4.37941   17.93516
       O     4.38810    5.18567   18.34836
      H1     4.25755    5.81195   17.63204
       H    -0.42446    4.38667   13.18589
       O    -0.76046    4.46420   14.07028
      H1    -0.44168    3.78534   14.67906
       H    -0.44103   -1.82525   17.53648
       O     0.17195   -2.24039   16.92505
      H1     0.16300   -3.12676   17.29181
       H    -4.71651    3.60650   16.93692
       O    -3.80809    3.38973   17.28799
      H1    -3.30442    4.16914   16.98056
       H     2.74092    6.05801   16.23913
       O     3.50428    6.58385   15.98844
      H1     3.24822    7.52815   15.99562
       H    -0.88744   -0.89284   13.08371
       O    -1.39909   -0.84400   12.25857
      H1    -1.72025    0.09245   12.33555
       H     5.24893   -3.50163   16.20441
       O     5.97958   -3.66447   15.53227
      H1     5.50173   -3.71852   14.70835
       H     4.76309    3.49912   14.51713
       O     4.76320    2.66915   15.04462
      H1     3.91176    2.62836   15.47772
       H     0.02122    6.02362    9.20726
       O    -0.62855    5.94480    9.98083
      H1    -0.52176    6.73577   10.56654
       H     4.15048   -1.62259   17.49335
       O     4.29050   -0.79964   17.01338
      H1     5.16637   -0.85971   16.63084
       H     0.10839    0.88623   14.86486
       O     0.11942    1.74448   15.25659
      H1    -0.19307    1.61118   16.16235
       H     3.96724    0.34494    9.85969
       O     3.57818    0.22501    8.99228
      H1     4.11402    0.80895    8.42548
       H    -3.71978    6.04668   18.86540
       O    -3.84541    5.18839   19.28091
      H1    -3.69640    4.49217   18.56519
       H     4.47472    5.62499   14.56280
       O     4.75062    5.00181   13.88172
      H1     4.24214    5.20117   13.08525
       H     3.27798   -0.87140   14.01175
       O     3.22819   -1.56208   14.65735
      H1     3.61876   -1.24195   15.49823
       H     1.38012   -1.31082   14.45440
       O     0.40635   -1.16140   14.40059
      H1     0.02876   -1.74595   15.05592
       H     2.40176    9.23841   14.97266
       O     2.19054    9.11535   15.92559
      H1     2.48472    9.82864   16.49574
       H     0.25593   -1.13134   11.43479
       O     1.17431   -1.19604   11.12417
      H1     1.06544   -1.87013   10.42383
       H     6.31181    2.09182   13.98078
       O     7.19556    1.99558   13.55144
      H1     6.88453    2.05970   12.63900
       H     2.55232    2.54048   19.67439
       O     3.18811    2.03553   19.13040
      H1     3.94743    2.62604   19.13649
       H     7.88881    6.67862   15.29993
       O     6.94866    6.58486   15.50357
      H1     6.66386    5.83988   14.99117
       H    -1.73975   -0.40887   18.83848
       O    -1.74337   -1.40084   18.82831
      H1    -1.43158   -1.68627   19.69894
       H    -0.86463    6.65640   18.97420
       O    -0.56577    7.11033   18.19249
      H1    -0.50768    8.05319   18.27058
       H    -5.11016    1.73993   15.06224
       O    -4.18213    1.45839   15.19947
      H1    -3.76363    2.10861   15.85094
       H    -1.52524    5.30479   15.89193
       O    -2.14595    5.58347   16.57517
      H1    -1.55687    6.12043   17.17687
       H     0.54275    6.10449   14.36309
       O     1.07077    6.90992   13.97675
      H1     1.06448    7.58354   14.64171
       H    -0.61444    1.62643   18.47950
       O    -0.29132    1.02689   17.83965
      H1     0.14476    0.27756   18.27575
       H     0.84752    6.07206   17.44828
       O     1.03701    5.44193   16.71020
      H1     1.31375    4.56702   17.03273
       H     1.57762    2.40807   15.95634
       O     2.20493    2.95744   16.48839
      H1     2.42857    2.37598   17.31418
       H     2.20166    5.09215   11.65746
       O     2.74126    5.78549   11.98119
      H1     2.16510    6.24226   12.72725
       H     6.33011    0.42485   10.86683
       O     5.62273    1.04849   10.94536
      H1     5.06782    0.82175   11.72409
       H    -2.23029   -4.52191   17.49068
       O    -1.78006   -4.35643   16.60875
      H1    -1.72353   -3.40222   16.49130
       H     2.97350    7.25884   11.18685
       O     3.18192    8.15745   10.87871
      H1     4.02905    8.25285   11.33917
       H     5.62421    2.38941   17.07026
       O     5.76923    2.93111   17.85812
      H1     6.68663    2.84861   18.12992
       H     1.52723   -2.41644   18.25389
       O     1.78788   -2.49320   19.19121
      H1     2.72990   -2.25030   19.32625
       H     1.33834    0.60798   11.34538
       O     1.59233    1.56455   11.35641
      H1     1.77166    1.89671   10.45460
       H     9.07715    4.13216   14.33825
       O     8.48568    3.82566   14.98203
      H1     8.04875    3.14200   14.45491
       H     3.51241   -4.04068   17.69372
       O     4.25848   -3.43244   17.58147
      H1     4.72950   -3.38641   18.41950
       H    -4.97043   -1.25110   15.77543
       O    -4.61414   -1.14784   16.65396
      H1    -4.10687   -0.34726   16.56294
       H     5.82453    6.12947   18.76745
       O     6.68070    6.51081   18.50097
      H1     6.74428    6.29146   17.57768
       H    -2.04034    2.25905   13.10741
       O    -2.50565    1.53123   12.71996
      H1    -3.07387    1.19704   13.44262
       H     0.32379    7.66989   12.35591
       O    -0.01296    8.11111   11.56413
      H1    -0.84713    8.51016   11.82679
       H     4.12248    1.39483   13.69486
       O     3.97349    0.77207   12.98141
      H1     3.07218    0.98590   12.65661
       H    -4.02564    1.51892   11.85533
       O    -4.82149    1.79503   11.43018
      H1    -5.41289    1.01900   11.47971
       H     0.18767    4.80015   11.02492
       O     0.54829    4.11465   11.59943
      H1     0.37904    3.22324   11.29687
       H     1.71115   -5.44960   17.19546
       O     2.09763   -4.73256   16.73332
      H1     1.65809   -4.64021   15.88067
       H     5.89234    7.77440   15.84512
       O     5.50850    8.65346   16.02228
      H1     5.31961    8.71669   16.96669

