150
frame 3 | Written by MDAnalysis XYZWriter (release 2.4.3)
       H    12.46055   -6.43833   10.11577
       O    11.48859   -6.60716   10.09780
      H1    11.02344   -5.75877   10.15672
       H    11.67363   -2.16215   -0.23780
       O    11.52586   -2.02732   -1.24841
      H1    11.92364   -2.80977   -1.62354
       H    13.67968   -4.64549    3.46784
       O    13.68560   -5.04008    4.43957
      H1    14.50252   -5.60213    4.46121
       H    13.14782  -10.47478   -0.35559
       O    12.71345   -9.67596   -0.52701
      H1    12.01455   -9.98591   -1.19850
       H    17.26948  -10.29075    0.82034
       O    16.89134   -9.40594    0.90543
      H1    16.34457   -9.32779    1.68929
       H     7.37550   -6.38660    5.16606
       O     8.02235   -6.81955    5.73717
      H1     7.87966   -7.73781    5.64096
       H    14.60825   -3.98486   -1.87465
       O    13.73475   -4.09860   -1.45270
      H1    13.21687   -4.64859   -2.04065
       H    14.82434   -6.39672   11.08287
       O    14.33951   -6.60177   10.28686
      H1    14.76903   -6.15076    9.54491
       H    17.96632  -11.56657    3.51844
       O    17.01110  -11.59785    3.39615
      H1    16.63390  -10.73950    3.62583
       H    10.74272   -4.57965    6.93874
       O    11.55909   -4.93947    7.24092
      H1    11.93377   -5.57168    6.59972
       H    13.47444   -9.25771    6.69956
       O    13.31657  -10.19474    6.84973
      H1    14.12447  -10.66815    6.94703
       H    12.91712   -3.96034    7.80109
       O    13.76564   -3.53807    8.18467
      H1    14.22890   -3.29933    7.39410
       H    14.67621   -9.49837    3.54932
       O    15.43457   -9.10838    3.01137
      H1    15.67832   -8.35602    3.54611
       H    19.03180   -3.78504    6.59455
       O    18.72503   -2.92167    6.87854
      H1    17.99353   -3.15088    7.51814
       H    12.95608  -11.08202    3.75386
       O    12.84559  -10.09152    3.91159
      H1    12.65998  -10.03453    4.86025
       H    14.44982   -0.80502    8.46623
       O    15.15501   -1.04315    9.04730
      H1    15.32995   -1.98251    8.94137
       H    18.88291   -6.50611   -0.79985
       O    18.17060   -5.86738   -1.02889
      H1    18.49014   -4.99150   -0.59987
       H    16.94250   -6.54267    4.54087
       O    15.99070   -6.64182    4.77850
      H1    15.99796   -7.18458    5.54869
       H    10.62222   -4.88533    0.48570
       O     9.82880   -4.85750   -0.07890
      H1    10.21252   -4.91906   -1.01175
       H    14.06763   -3.66653    5.15503
       O    14.45165   -2.82528    5.46119
      H1    15.33384   -2.85912    5.09281
       H    14.54826   -8.24515    9.57397
       O    14.56108   -9.20386    9.46544
      H1    13.83821   -9.42798    8.83871
       H    10.10502   -8.09142    4.42978
       O    10.66709   -7.45086    3.99494
      H1    10.85411   -7.76488    3.08169
       H    16.55184    0.66243    4.29712
       O    16.79990    0.09393    3.53288
      H1    16.04190   -0.09597    2.94368
       H    11.84592   -1.79595    2.36807
       O    11.62063   -2.06438    1.46484
      H1    11.79533   -3.04813    1.60522
       H    17.04119   -1.65692    4.26274
       O    17.01752   -2.56635    4.62458
      H1    17.66972   -2.54270    5.36344
       H    13.43840    1.05859    8.09551
       O    13.42554    0.28735    7.48652
      H1    14.17487    0.34042    6.81105
       H     9.92344  -10.17131    2.45808
       O    10.25029  -10.41109    3.33560
      H1    11.22183  -10.18622    3.36322
       H    16.64135   -4.42412    8.77364
       O    17.24272   -3.68225    8.90961
      H1    17.98792   -3.97208    9.46755
       H    15.99552   -3.75910    0.57745
       O    15.17549   -3.39189    0.93132
      H1    14.62937   -3.60032    0.21197
       H    19.00601   -3.85830    3.06065
       O    18.11895   -4.13446    2.85689
      H1    17.61344   -3.67668    3.56742
       H    14.72531   -5.20180    7.75417
       O    15.60103   -5.54966    8.07481
      H1    15.79394   -6.37221    7.59304
       H    12.69420   -5.52437    1.67271
       O    12.09129   -4.78151    1.93729
      H1    11.70110   -5.00855    2.78673
       H     9.31141   -4.58227    3.26194
       O    10.08432   -4.68782    3.83357
      H1    10.18935   -5.70993    3.95898
       H    13.56236   -1.40019    4.66510
       O    13.05653   -1.14521    3.87952
      H1    12.52176   -0.41172    4.19419
       H    12.38802   -7.44279    6.46293
       O    13.21903   -7.38034    5.91544
      H1    12.86470   -7.00648    5.08958
       H    18.20757   -8.60915    1.72405
       O    19.00529   -8.22136    2.19915
      H1    19.49675   -7.73616    1.49544
       H    14.04845   -7.51957    1.91057
       O    13.86580   -6.83073    1.31264
      H1    14.49266   -6.85552    0.60285
       H    11.76376   -0.45858    7.17037
       O    10.91728   -0.79589    6.87708
      H1    11.13186   -1.70145    6.67638
       H    15.03232   -1.57453    1.65167
       O    14.87721   -0.68924    2.04039
      H1    14.44788   -0.87882    2.91979
       H    18.84041   -6.90906    3.44402
       O    18.70669   -6.31946    4.17365
      H1    18.59348   -5.55983    3.62969
       H    18.91028   -2.66434    0.06252
       O    18.02340   -3.11739    0.13464
      H1    18.12708   -3.37053    1.09774
       H    19.63301   -8.48909    7.47192
       O    19.06782   -7.88295    7.96642
      H1    19.12195   -6.97169    7.60393
       H    12.02435   -7.66893    1.27755
       O    11.15421   -8.14175    1.39567
      H1    11.23046   -8.88786    0.77035
       H    10.16329   -7.44302    7.40767
       O    10.98044   -7.73727    7.71827
      H1    11.23458   -7.11393    8.44070
       H    16.41158   -8.40748    8.23311
       O    16.42913   -7.98885    7.33717
      H1    17.32601   -7.68529    7.34199
       H     9.19709   -6.80412    0.81177
       O     8.33510   -6.91146    1.26135
      H1     8.05210   -5.99116    1.32625
       H    16.60043   -6.92340   -0.61352
       O    15.84190   -7.45178   -0.71197
      H1    16.08752   -8.26063   -0.27605
       H     8.86234   -4.00012    6.46103
       O     9.37493   -3.34105    6.01548
      H1     9.75973   -3.78820    5.23309
       H    11.47904   -3.58485   10.24090
       O    12.36771   -3.30376   10.54319
      H1    12.82313   -3.37251    9.66905
       H    10.02411   -9.11231    7.88908
       O     9.53989   -9.94519    8.02013
      H1    10.16969  -10.70051    8.10104

