150
frame 6 | Written by MDAnalysis XYZWriter (release 2.4.3)
       H   -10.86474    6.02511   13.26361
       O   -11.25745    6.13936   14.09141
      H1   -11.56410    7.05877   14.09528
       H   -15.49440   13.46455   11.31716
       O   -15.59960   12.51478   11.03726
      H1   -16.16579   12.48208   10.25974
       H    -7.85093   13.14784   14.67109
       O    -8.04224   12.91783   15.64405
      H1    -8.69385   13.52664   15.85631
       H    -9.20630   10.47470   14.10032
       O    -9.64111   10.91310   14.82394
      H1    -8.98943   11.51498   15.22335
       H   -10.92580   13.71007   14.69536
       O   -11.27618   12.99129   14.17485
      H1   -10.66924   12.24278   14.37289
       H    -9.41350    8.71838    7.55118
       O    -8.57339    8.37505    7.85369
      H1    -8.77602    7.73034    8.45725
       H   -13.70653    9.92711    6.54965
       O   -13.17601    9.44575    7.22853
      H1   -13.83317    9.18965    7.90612
       H   -11.18417    8.74949   10.09727
       O   -10.97308    7.84934    9.81184
      H1   -10.50081    7.46170   10.57343
       H   -13.84284   12.15799   16.34119
       O   -13.55093   11.48170   15.76358
      H1   -12.84180   12.04599   15.35197
       H    -9.55281   16.40567    7.49384
       O    -9.60028   17.39475    7.54050
      H1    -9.41739   17.52269    6.61965
       H   -15.44298    8.84627    9.80637
       O   -15.28240    9.58244    9.19310
      H1   -15.01792   10.28079    9.81184
       H    -5.65303   15.57623   14.02643
       O    -6.32544   15.87689   14.59022
      H1    -7.07319   15.56081   14.05458
       H   -11.07578   16.21044   12.06795
       O   -10.78198   15.44376   11.51448
      H1   -11.52243   14.80068   11.67708
       H    -6.54337   13.56920    7.96043
       O    -6.34443   14.08681    8.76209
      H1    -7.08476   14.67446    8.96556
       H   -13.23619   16.89827    9.86363
       O   -13.98882   17.39742   10.24884
      H1   -13.92451   17.20093   11.22558
       H    -8.71656    9.57438    9.51828
       O    -8.54735   10.36668   10.10364
      H1    -8.51050    9.97193   10.95623
       H   -11.49450    9.39988    6.29330
       O   -10.51700    9.41120    6.28859
      H1   -10.16148    9.26407    5.43967
       H    -9.28436   13.96191   12.99651
       O    -8.30530   13.85741   13.10390
      H1    -7.98281   13.17883   12.45331
       H   -13.15019   13.97809   13.84189
       O   -13.60898   14.84691   13.94212
      H1   -13.79831   14.79674   14.90270
       H   -13.42591    8.72902   14.83193
       O   -12.52411    8.43940   14.72817
      H1   -12.27843    8.03169   15.56926
       H    -4.66634    8.40107   10.02829
       O    -5.16687    7.93685    9.37782
      H1    -5.21310    8.59548    8.61564
       H   -14.49191   10.43427   12.44341
       O   -13.92796   10.63423   11.70449
      H1   -14.42406   11.37418   11.32832
       H    -5.87437   11.72133   12.93866
       O    -6.66036   11.60946   12.36600
      H1    -6.30808   11.68483   11.44131
       H   -11.39234    6.70555    7.63695
       O   -11.51578    6.37618    6.71666
      H1   -12.41823    6.59026    6.40761
       H   -12.84973   16.43579   13.38235
       O   -12.79127   17.31735   12.99325
      H1   -12.89899   18.00599   13.63989
       H    -9.86475   16.00908   15.10116
       O   -10.06824   15.16372   15.59098
      H1   -10.14134   15.40086   16.52440
       H   -12.68517   12.64798   11.80967
       O   -12.77661   13.57829   11.61010
      H1   -12.97952   13.66069   10.69948
       H    -6.93767   18.82603    7.57634
       O    -6.73761   17.91903    7.97315
      H1    -7.72021   17.61078    8.08101
       H    -4.83681    9.82213   12.03974
       O    -4.08779    9.62720   11.48619
      H1    -3.29969    9.71622   12.07228
       H    -6.39521    6.27246    6.60879
       O    -7.05980    6.86009    6.18244
      H1    -7.55121    7.13853    6.94453
       H   -11.16995   15.53977    9.29487
       O   -11.71416   16.00503    8.64995
      H1   -11.02059   16.63404    8.22183
       H    -7.85796    7.21001   14.74028
       O    -7.04005    7.35106   14.24323
      H1    -6.41545    7.66039   14.93005
       H   -10.13724    9.72495   16.09566
       O   -10.39373    9.26772   16.89039
      H1    -9.75493    9.70977   17.48482
       H   -11.78430   12.08908    5.07831
       O   -11.53135   12.97819    5.26566
      H1   -11.06281   12.84768    6.16503
       H    -4.53217    9.31742    6.41310
       O    -5.26551    9.54722    7.08662
      H1    -6.04406    9.21465    6.56990
       H    -7.62926    8.71196   13.25123
       O    -8.19403    9.45163   12.86247
      H1    -7.56911   10.20456   12.94016
       H    -4.72933   15.29505    9.42473
       O    -4.05958   15.63733   10.07640
      H1    -4.35013   16.58366   10.08943
       H    -7.92457    6.68908   11.30673
       O    -7.71329    6.93166   10.37780
      H1    -6.81237    7.26187   10.26793
       H   -14.64363   14.78574   12.26883
       O   -15.26743   15.11918   11.62995
      H1   -15.95913   15.50977   12.23060
       H    -8.92677   17.19925   10.55839
       O    -9.47558   18.01809   10.44521
      H1    -9.06108   18.55833    9.77949
       H   -12.08663   10.14367    8.73186
       O   -11.64076   10.37717    9.54385
      H1   -12.40925   10.40432   10.18370
       H    -4.72911   12.58294   14.49817
       O    -4.81140   11.61198   14.37142
      H1    -5.21696   11.26919   15.16714
       H   -12.78475   14.25500    5.14308
       O   -13.42519   14.99400    5.08429
      H1   -14.22989   14.40640    4.97748
       H    -6.21494   12.52255    9.47591
       O    -6.08778   11.55658    9.66484
      H1    -6.89217   11.09728    9.45102
       H    -7.90988   15.32542   11.44197
       O    -8.14428   15.41800   10.51401
      H1    -9.07429   15.23937   10.57633
       H    -9.60209   12.08638    8.08592
       O    -9.45167   12.14316    7.11590
      H1    -9.90979   11.30983    6.91253
       H    -5.42118   16.60459    6.05610
       O    -5.33885   15.99344    6.78866
      H1    -5.81667   16.49095    7.47043
       H    -9.74829   11.94989   10.35096
       O   -10.04794   12.76317    9.87469
      H1   -10.90406   12.37912    9.68387
       H    -6.12508   11.35470    7.12187
       O    -6.52476   12.19245    6.84101
      H1    -7.46447   12.05564    6.97416
       H   -14.32320   13.74446    8.72199
       O   -13.35419   13.67232    8.91216
      H1   -12.90965   14.51665    8.57350

