150
frame 11 | Written by MDAnalysis XYZWriter (release 2.4.3)
       H    -7.66179    1.58704   11.73979
       O    -7.29505    0.80550   12.25876
      H1    -6.74335    1.33889   12.87055
       H   -12.32147   -8.46099   17.28530
       O   -13.20138   -8.39928   17.76258
      H1   -13.11975   -7.55335   18.20817
       H   -10.74907   -0.38595   12.47591
       O   -11.07146   -0.86166   13.24851
      H1   -10.77282   -0.56650   14.09080
       H    -4.05309   -3.22588   11.65053
       O    -4.29555   -2.42732   12.11349
      H1    -3.43486   -1.90233   12.10177
       H   -12.29180    1.33141   18.07294
       O   -11.32371    1.34462   17.80051
      H1   -10.79778    1.09010   18.53937
       H   -13.28258   -2.96467   16.16914
       O   -12.45397   -3.05565   15.68290
      H1   -12.59004   -3.36583   14.77938
       H   -11.12788    1.68534   14.43766
       O   -10.96138    2.55620   14.16518
      H1   -11.32538    3.10272   14.85946
       H   -10.81436   -4.71606   18.67766
       O   -11.25536   -5.29926   19.35995
      H1   -10.74576   -6.18475   19.46155
       H   -10.05855   -8.03533   16.95944
       O   -10.31119   -8.74484   16.35689
      H1    -9.89604   -8.76630   15.51140
       H    -3.21151    2.18964   17.25311
       O    -3.56398    3.07841   17.47314
      H1    -3.05924    3.75925   16.96608
       H    -3.99614   -5.63893   11.56296
       O    -3.77907   -4.88404   10.99202
      H1    -4.35195   -4.99017   10.17880
       H    -6.59388   -4.44137   12.20987
       O    -6.70301   -4.44940   13.15346
      H1    -5.83541   -4.23585   13.60112
       H    -1.66926   -0.30665   12.60127
       O    -2.53545   -0.52318   13.00054
      H1    -2.85850    0.29144   13.32172
       H    -7.59628   -0.33426   15.66902
       O    -7.03356    0.34361   16.13726
      H1    -6.92679    0.95596   15.45399
       H    -8.43312   -3.63653   10.31904
       O    -7.50737   -3.87321   10.48547
      H1    -7.26108   -4.57820    9.81415
       H    -6.17634   -8.29707   15.87749
       O    -6.42413   -7.33614   15.88475
      H1    -7.00412   -7.24481   15.14695
       H    -1.44490    1.13668   19.83186
       O    -1.15493    0.29005   19.45314
      H1    -1.05711    0.46017   18.49643
       H     1.45283   -3.09732   15.29643
       O     0.63235   -3.59456   15.27505
      H1    -0.13142   -3.01128   15.50650
       H    -3.16559  -10.92173   15.78925
       O    -3.36265  -10.16219   15.19232
      H1    -2.49878  -10.07796   14.74616
       H    -0.53575   -6.89442   17.56399
       O    -1.05630   -7.70906   17.32627
      H1    -0.77128   -8.06558   16.48240
       H    -5.59735    5.23327   18.39446
       O    -5.53376    4.47373   18.96208
      H1    -4.98499    3.86241   18.40644
       H    -5.09846   -7.86377   17.99264
       O    -5.32270   -8.70925   18.35828
      H1    -5.96449   -9.10629   17.83224
       H    -1.66166   -1.49506   14.53568
       O    -2.06580   -1.93938   15.29280
      H1    -3.05964   -2.04774   15.20397
       H    -8.36282   -1.51933   18.91667
       O    -8.87981   -1.62091   18.14595
      H1    -8.93380   -0.87204   17.54788
       H    -2.16785   -9.10777   18.20249
       O    -2.70932   -9.41086   18.97803
      H1    -3.64268   -9.26235   18.69006
       H    -4.51752   -2.76421   13.89993
       O    -4.55166   -3.19930   14.77453
      H1    -5.39517   -2.91365   15.14709
       H    -7.87200   -5.43468   13.82017
       O    -8.49420   -6.13264   14.23202
      H1    -9.07613   -5.58571   14.76457
       H    -3.58771   -0.10987   17.09994
       O    -2.79276    0.30068   16.81176
      H1    -2.33215   -0.46224   16.38452
       H    -6.75109  -11.10534   15.80781
       O    -6.76503  -10.14563   15.95898
      H1    -7.41921   -9.71565   15.39691
       H   -12.61890   -5.09284   13.78900
       O   -12.05197   -4.37786   13.41890
      H1   -11.15040   -4.64710   13.68456
       H    -8.86373    3.66703   14.92943
       O    -8.08326    3.71626   15.53860
      H1    -8.04444    4.68086   15.70376
       H    -4.40490   -9.49893   11.46160
       O    -4.24202   -8.68207   10.99402
      H1    -4.41156   -7.99978   11.66534
       H    -1.36559   -4.15553   18.02151
       O    -2.29291   -3.69778   17.98354
      H1    -2.29205   -3.38994   17.06201
       H    -9.69835   -3.03977   17.31528
       O   -10.02913   -3.96145   17.26171
      H1   -10.71436   -3.83781   16.63961
       H     0.50517   -4.73282   18.98042
       O     0.06841   -5.03061   18.17188
      H1     0.75279   -4.89884   17.52283
       H    -8.46560   -8.02976   14.08797
       O    -8.62708   -8.94799   14.23615
      H1    -8.22884   -9.35190   13.46178
       H    -8.75997   -5.31143   17.10558
       O    -8.18289   -5.99708   17.49881
      H1    -7.59442   -6.33800   16.81981
       H    -9.78679   -8.33949   19.73202
       O    -9.91561   -7.67747   18.98405
      H1    -9.07995   -7.21138   18.78764
       H    -8.31224   -2.73572   15.13793
       O    -7.70422   -2.78106   15.92143
      H1    -8.17646   -2.39682   16.67942
       H    -6.54075   -4.80202   17.89964
       O    -5.98011   -4.00233   18.06728
      H1    -6.39584   -3.33427   17.51433
       H    -8.35260   -3.55442   13.12332
       O    -9.04719   -3.13077   13.68200
      H1    -9.66801   -2.62371   13.12959
       H    -3.57128   -6.84491   16.03568
       O    -3.38384   -7.25436   15.14752
      H1    -3.31171   -8.25170   15.22967
       H   -10.84918   -2.90563   10.73619
       O    -9.96301   -2.54532   10.55216
      H1    -9.96173   -1.66797   10.82254
       H    -3.37863   -5.37093   17.59919
       O    -4.04131   -6.05267   17.48441
      H1    -4.83188   -5.58550   17.19687
       H    -2.52931    2.29712   14.32492
       O    -3.19818    1.58551   14.38122
      H1    -3.11104    1.23643   15.33262
       H    -6.84869   -0.02686    9.15424
       O    -6.19288    0.34050    9.71254
      H1    -6.49793    0.29415   10.63204
       H    -5.39879   -0.61058   18.57901
       O    -5.31162   -0.98237   17.66946
      H1    -6.02892   -0.51052   17.25628
       H    -4.99012    2.37648   14.40992
       O    -5.75474    2.72900   13.87976
      H1    -6.32733    3.21319   14.53237
       H    -5.11543   -6.07899   13.05477
       O    -4.81272   -7.00284   13.00015
      H1    -4.32456   -7.16231   13.80404
       H   -10.93263   -0.34735   16.85920
       O   -10.67560   -0.97697   16.14781
      H1   -11.34966   -1.64473   16.14707

