150
frame 12 | Written by MDAnalysis XYZWriter (release 2.4.3)
       H    -2.83285   11.36487    8.76566
       O    -2.15498   11.65715    8.13022
      H1    -2.09096   12.60641    8.05030
       H    -3.48953    3.75272   12.09276
       O    -3.84994    2.89470   11.74729
      H1    -4.60192    2.61177   12.34945
       H     0.93865    4.71240    4.58925
       O     0.87385    4.33520    5.48603
      H1     1.76192    4.54810    5.81248
       H     2.12939    3.43217    9.59683
       O     2.02983    4.17917   10.25820
      H1     1.95982    3.76752   11.12741
       H    -0.83357    6.66735    7.72119
       O    -1.01211    7.58019    8.05682
      H1    -0.41462    8.16426    7.59635
       H    -1.19671    2.51013   12.99272
       O    -1.21695    3.04901   13.79298
      H1    -0.30241    3.44424   13.85430
       H     3.11493    5.84452    6.98768
       O     3.25105    5.37657    6.13178
      H1     3.92191    4.66291    6.31768
       H    -1.32505    3.42649   10.27283
       O    -1.56536    3.64645    9.40023
      H1    -2.40375    3.18958    9.36805
       H    -2.92261    2.14109    5.69442
       O    -3.00401    2.99011    5.19204
      H1    -2.47214    2.71664    4.42827
       H     0.05089    9.28487    5.94762
       O     0.61775    9.36448    6.70562
      H1     1.04891   10.21576    6.61515
       H     1.05503    5.24613   13.29211
       O     1.59271    4.56421   13.78563
      H1     1.47199    4.80077   14.73598
       H    -3.33656    5.78390   11.60714
       O    -3.19106    5.44968   12.50016
      H1    -3.81310    5.90668   13.14162
       H    -5.46858    5.72368    8.86145
       O    -5.81630    6.36460    9.51337
      H1    -6.44018    6.95902    9.09491
       H    -7.80322    4.11041   11.30498
       O    -8.23583    3.41963   10.84992
      H1    -8.96280    3.23143   11.44286
       H    -6.14550    9.77234    5.06697
       O    -6.09194    9.12204    4.32608
      H1    -6.96992    9.11786    3.82231
       H    -5.79776   11.73899   12.80785
       O    -6.13768   11.44714   11.97530
      H1    -5.37512   11.29848   11.43115
       H     0.57474    9.69992   10.10889
       O     0.26932   10.58903    9.84571
      H1    -0.25059   10.55620    9.06723
       H    -1.99403    8.29627   12.20438
       O    -2.68169    8.72403   12.64452
      H1    -2.26811    9.56712   12.94594
       H    -7.84342    3.30642    8.33246
       O    -8.52076    2.99100    7.72776
      H1    -8.36707    3.47845    6.91494
       H    -2.40241    4.64667    5.69641
       O    -2.21385    5.58615    5.53790
      H1    -2.72952    6.05165    6.17347
       H    -4.85062    7.80024   10.41577
       O    -4.87610    8.47618   11.07089
      H1    -4.08076    8.42179   11.63169
       H    -2.45024    5.16240    9.45816
       O    -2.82723    6.07081    9.55632
      H1    -2.17454    6.59169    9.03574
       H    -6.50262    7.49273    5.07761
       O    -6.76868    6.62294    5.31435
      H1    -7.52883    6.79953    5.91644
       H    -6.96174    5.34040   14.59601
       O    -6.97787    6.22157   14.25574
      H1    -6.09468    6.52829   14.28313
       H    -5.34896    4.01342    6.63095
       O    -5.25862    4.92785    7.01722
      H1    -5.77006    5.46809    6.37686
       H    -3.73669    5.79493    3.75263
       O    -4.14436    6.64535    3.74615
      H1    -4.31003    6.89726    4.62460
       H    -6.15253    5.68718   10.99069
       O    -6.40507    5.16178   11.77130
      H1    -6.66333    5.78408   12.50202
       H     1.55669    7.55511    9.87791
       O     1.39010    7.91787   10.77806
      H1     0.84308    7.35150   11.27609
       H     1.30785   12.22573   12.28670
       O     0.52191   12.70264   11.98011
      H1     0.15855   12.19922   11.24154
       H    -5.59474    8.35575    7.41876
       O    -6.36099    8.82461    7.83566
      H1    -7.20857    8.45888    7.52567
       H    -3.12662    0.91175    8.01528
       O    -2.95669    0.99591    7.05686
      H1    -2.02033    0.94267    6.83835
       H    -6.98290    8.34190   13.21574
       O    -7.48867    8.93571   12.66566
      H1    -6.82175    9.17275   12.01738
       H    -0.69441    5.83362   11.99854
       O    -0.07587    6.22283   12.58655
      H1    -0.49062    6.31832   13.52276
       H    -0.36390    2.98869    8.21451
       O     0.27287    2.72543    7.52055
      H1     0.17419    3.46389    6.85028
       H     3.09930    8.91733   11.20978
       O     3.79705    9.41563   11.53411
      H1     4.30572    8.95158   12.19110
       H     2.19609    2.52294    7.74871
       O     2.91095    2.54395    8.35231
      H1     3.81156    2.63237    7.91982
       H    -2.97910   10.90863    6.70165
       O    -3.33652   10.22328    6.21158
      H1    -4.28105   10.49242    6.12322
       H     3.40235    6.84070    8.81630
       O     3.20431    7.55472    8.19984
      H1     3.93678    8.16179    8.06381
       H    -0.70985    8.30186    4.16840
       O    -0.58118    9.21216    4.52480
      H1    -1.46411    9.61089    4.60376
       H     0.16604    6.18397    3.45874
       O    -0.70414    6.65157    3.57551
      H1    -1.17866    6.29865    4.34477
       H    -5.09914   11.02319    9.31215
       O    -4.39423   10.69291    9.90801
      H1    -4.68279    9.76871   10.16569
       H     3.49954    5.15072   10.43248
       O     4.29451    5.56524   10.10885
      H1     4.57642    6.26349   10.70600
       H    -0.03585    1.21937    6.81754
       O    -0.25432    0.25476    6.64646
      H1     0.37803   -0.00313    5.94052
       H    -6.48753    3.88404    4.44506
       O    -5.92121    3.27273    4.97096
      H1    -5.01346    3.30302    4.70910
       H    -4.74212    7.90234   14.94549
       O    -4.49256    7.43404   14.09418
      H1    -3.72816    7.91709   13.76982
       H    -6.43115   10.69560    7.99151
       O    -6.26531   11.62337    8.13454
      H1    -7.13689   11.93289    8.44788
       H    -2.26251    1.75492   11.62990
       O    -1.32290    1.51679   11.54882
      H1    -1.27889    0.70144   11.04521
       H     2.63672    8.30504    5.88565
       O     3.43751    8.10306    5.45930
      H1     3.52697    7.12490    5.63230
       H    -4.31534    2.74448   10.05480
       O    -4.32123    2.89300    9.13454
      H1    -4.66914    2.07820    8.75998
       H    -4.17530    7.10165    7.93700
       O    -4.03514    7.71691    7.26061
      H1    -3.41613    8.39900    7.56358

