150
frame 0 | Written by MDAnalysis XYZWriter (release 2.4.3)
       H    -0.80254   18.70238  -14.60151
       O    -0.37693   19.55021  -14.23725
      H1     0.57467   19.27115  -14.11869
       H    -2.61610   18.65309  -12.11193
       O    -3.46997   18.83475  -12.56885
      H1    -3.33948   18.48522  -13.47077
       H    -1.66317   16.58858  -14.85240
       O    -0.83503   16.89896  -14.41749
      H1    -0.62458   16.18909  -13.83106
       H    -5.29360   16.60209  -17.95610
       O    -5.78925   15.97455  -18.59870
      H1    -6.64082   16.34986  -18.34808
       H   -10.33603   18.16305  -18.45438
       O   -10.39392   19.02802  -18.89284
      H1   -11.30689   18.96291  -19.25521
       H    -8.31832   13.24396  -14.16604
       O    -8.53619   12.32181  -14.37791
      H1    -9.52360   12.38753  -14.36284
       H    -4.13766   18.50266  -17.83078
       O    -4.60144   18.00445  -17.12568
      H1    -4.80073   18.75623  -16.53795
       H    -4.40309    7.96353  -14.52769
       O    -4.95473    8.70014  -14.72462
      H1    -5.46531    8.27469  -15.35446
       H    -1.36148   18.75859  -17.38761
       O    -2.15741   19.37061  -17.30479
      H1    -1.81874   19.93129  -16.59563
       H    -5.75596   14.20145  -13.76127
       O    -4.80936   14.15088  -13.92115
      H1    -4.57930   13.24924  -14.13760
       H   -10.93351    7.73047  -15.70112
       O   -10.66261    8.61074  -15.93461
      H1   -11.45232    8.92064  -16.33121
       H    -1.26375   10.94219  -18.95071
       O    -2.09198   11.08161  -18.47514
      H1    -2.01391   11.93934  -17.98745
       H     1.26978   13.83925  -16.52820
       O     1.23913   14.74209  -16.18394
      H1     2.19118   14.95991  -15.93872
       H    -2.24729   10.21566  -17.02712
       O    -2.41414    9.87963  -16.08697
      H1    -3.38305    9.79328  -16.13913
       H     2.24283   11.89454  -17.64047
       O     1.90286   12.12493  -16.74197
      H1     1.31580   11.28639  -16.58385
       H    -5.78996   12.74727   -9.61595
       O    -5.27031   13.30994  -10.26600
      H1    -5.69648   12.97943  -11.07623
       H    -4.81483    9.84341  -17.74710
       O    -5.08568   10.67961  -17.36209
      H1    -6.02052   10.46787  -17.08337
       H   -12.80818   18.27681  -15.40088
       O   -13.25311   18.17880  -16.26679
      H1   -12.49887   17.94567  -16.84044
       H    -9.16182    8.40654  -16.40581
       O    -8.25897    8.23530  -16.69230
      H1    -7.94169    7.63358  -15.98452
       H     1.51024   13.41891  -14.69269
       O     1.53021   12.73878  -14.05768
      H1     1.70744   12.00308  -14.63631
       H    -8.06625   10.14749  -16.27784
       O    -7.78412   11.05821  -16.59962
      H1    -8.02747   11.60931  -15.78686
       H   -12.51126    9.48665  -19.21909
       O   -12.08577    9.64024  -18.35939
      H1   -11.19722    9.83804  -18.63812
       H    -9.45065   16.25894  -11.72339
       O    -9.39144   15.29948  -11.58145
      H1    -8.87648   15.18459  -10.75038
       H    -1.97922    6.51435  -16.26077
       O    -1.67737    7.14568  -15.53171
      H1    -2.04032    8.01450  -15.74946
       H   -13.56400   15.50860  -19.06174
       O   -13.39454   15.01548  -18.27925
      H1   -12.58659   15.39011  -17.87499
       H    -8.37298   19.54305  -15.88773
       O    -7.52008   19.46932  -15.34509
      H1    -7.55163   18.59298  -14.96029
       H    -6.41210    7.54726  -18.93158
       O    -7.28824    7.11786  -18.94515
      H1    -7.67335    7.41267  -18.08617
       H    -7.72905   15.15031  -13.02673
       O    -7.43629   14.46268  -13.67861
      H1    -7.22168   14.92735  -14.49826
       H   -10.41295   15.81064  -18.31767
       O   -10.73690   16.45631  -17.69205
      H1    -9.93473   16.61127  -17.15268
       H    -7.37600   18.03319  -17.22972
       O    -7.95513   17.34079  -17.59095
      H1    -7.94884   16.60729  -16.88933
       H    -5.34344   16.24700  -10.12972
       O    -4.87910   15.85491   -9.32471
      H1    -4.89583   14.89492   -9.45633
       H     0.77091   15.15498  -17.89581
       O     0.46046   15.61304  -18.70929
      H1    -0.45644   15.45682  -18.83674
       H    -3.03861   11.88471  -16.53089
       O    -2.70154   12.81332  -16.65105
      H1    -3.55024   13.24490  -16.75516
       H    -0.10883   14.18284  -12.02273
       O    -0.09160   14.60198  -12.92286
      H1    -0.00564   13.87100  -13.51196
       H   -12.11282   12.10356  -14.31287
       O   -11.27265   12.52655  -13.99721
      H1   -11.36400   13.50356  -14.08520
       H     0.31325   11.39264  -13.30583
       O     0.33281   10.43869  -13.13012
      H1    -0.51521   10.31558  -12.66687
       H    -7.01921   14.10451  -16.73919
       O    -7.81946   14.72033  -16.67973
      H1    -8.33430   14.29705  -17.37453
       H    -7.43640   11.72769  -12.70872
       O    -7.06454   11.42519  -11.89371
      H1    -6.15262   11.28421  -12.15906
       H    -3.80210   10.48974  -12.74143
       O    -4.67896   10.90714  -12.97528
      H1    -4.93590   10.18778  -13.55451
       H    -8.46646   11.98541  -18.02093
       O    -8.34758   12.40365  -18.90444
      H1    -9.31898   12.67950  -19.10642
       H    -3.05270   12.84219  -12.51345
       O    -2.77183   12.82972  -11.57648
      H1    -3.58096   13.11186  -11.17225
       H   -11.75685   12.79923  -16.47068
       O   -11.23258   12.72510  -17.30118
      H1   -11.34152   13.55719  -17.71510
       H     0.58025    8.93678  -16.59202
       O     0.58443    9.83707  -16.26306
      H1    -0.33948    9.90829  -15.99089
       H    -6.84908   17.24954  -12.96093
       O    -7.46421   17.13284  -13.74737
      H1    -8.26080   17.59575  -13.46280
       H    -4.10235    7.63224  -18.63276
       O    -4.80126    7.77397  -17.99068
      H1    -4.85641    6.94738  -17.45321
       H    -4.07004   15.93882  -14.43764
       O    -3.59605   16.76400  -14.70575
      H1    -4.07588   16.84014  -15.58888
       H    -3.34501   15.27450  -18.64743
       O    -2.55930   14.75977  -18.55285
      H1    -2.50684   14.40551  -17.66398
       H    -5.50431   14.30452  -17.90146
       O    -5.41438   13.65077  -17.18592
      H1    -5.48284   12.82334  -17.67056
       H     0.41219   16.98945  -17.71731
       O     0.25717   17.78697  -17.21689
      H1     0.18316   17.40865  -16.32164
       H    -5.89656   18.02705  -11.35253
       O    -5.58771   17.15494  -11.64653
      H1    -4.75443   17.42764  -12.05655

