150
frame 8 | Written by MDAnalysis XYZWriter (release 2.4.3)
       H    17.09654   16.21493    2.20288
       O    17.16917   16.29568    1.25324
      H1    17.16211   15.36000    1.04335
       H    14.84892    6.91680   -6.67467
       O    13.89441    7.06375   -6.52053
      H1    13.81909    7.94472   -6.09685
       H    16.52654   12.19648    4.54858
       O    16.91938   11.79404    3.77380
      H1    16.74470   10.81048    3.89792
       H    16.99138   14.18513   -4.26056
       O    16.02477   14.18641   -4.04069
      H1    15.67523   13.28570   -4.06508
       H    17.29108   16.43609   -6.85353
       O    17.73471   17.06428   -6.29346
      H1    17.03912   17.33766   -5.64197
       H    14.26925    4.15987    1.94365
       O    14.67415    4.87747    1.39982
      H1    15.28673    4.38038    0.89215
       H    15.98757   11.24699   -3.83563
       O    15.69063   11.56822   -4.69290
      H1    15.00241   10.91585   -4.93610
       H    18.84414   17.57997   -3.26450
       O    19.54550   16.93670   -3.43714
      H1    19.62501   16.45964   -2.58426
       H    13.30004    8.96872    2.43758
       O    13.03078    8.17230    2.02588
      H1    13.84523    8.02523    1.46655
       H    13.68763    8.02463   -8.02114
       O    13.87520    8.34334   -8.91674
      H1    13.25318    9.00855   -9.19429
       H    17.70603   11.28351   -1.56977
       O    17.11661   10.69028   -2.10985
      H1    16.25238   10.66981   -1.63750
       H    16.76801   12.94730    2.13547
       O    16.83612   13.39250    1.28912
      H1    16.08826   13.20006    0.75211
       H    10.51555    8.00959   -2.83370
       O    11.16612    8.52291   -2.32405
      H1    10.67446    8.74214   -1.51293
       H    17.58554   10.48559   -8.30016
       O    18.09260   10.26510   -9.13983
      H1    17.33234   10.00232   -9.77838
       H    10.97985   11.40864   -3.94192
       O    10.11765   11.07358   -3.98912
      H1     9.63023   11.79709   -4.56142
       H    16.96702    6.62066   -5.72716
       O    16.74959    6.33915   -4.80995
      H1    16.94871    5.38530   -4.78409
       H    17.82435    9.09893    3.63952
       O    16.86974    9.04839    3.81733
      H1    16.70896    8.35694    4.46031
       H    18.52857   11.15805   -6.08655
       O    17.76878   11.66203   -6.43926
      H1    17.04319   11.48417   -5.85861
       H    18.81433   10.24337    0.24837
       O    19.12633    9.40925    0.57422
      H1    18.52015    8.70846    0.41832
       H    12.07237   11.58403   -2.38876
       O    12.62234   10.82977   -2.61946
      H1    11.98077   10.13663   -2.74388
       H    14.45193   12.05368   -7.86696
       O    13.71885   11.42132   -7.86266
      H1    12.96345   11.86857   -7.50339
       H    12.38328   15.17556   -0.11598
       O    12.53737   14.59993   -0.89436
      H1    11.69204   14.69678   -1.43894
       H    16.39063   17.75564    0.79184
       O    16.13826   18.69473    0.73649
      H1    15.34267   18.81121    0.21224
       H    13.27271    7.05625    3.45693
       O    13.11247    6.51855    4.25656
      H1    12.98083    7.16067    4.96974
       H    15.42787    3.07324   -0.70927
       O    14.93065    3.36824   -1.48286
      H1    15.57250    3.47260   -2.22174
       H    19.57556   12.35124   -0.24671
       O    18.65591   12.00733   -0.26315
      H1    18.04096   12.39446    0.31058
       H    18.71875    5.57899   -1.26820
       O    19.07499    6.48781   -1.14908
      H1    18.80543    7.07513   -1.88612
       H    11.76884    4.85613   -3.36457
       O    12.39124    4.69960   -4.11807
      H1    13.13162    5.32808   -3.92045
       H    16.71214    3.39340   -4.49095
       O    17.34654    3.89721   -3.97610
      H1    18.16261    3.71943   -4.46294
       H     9.53240   11.21496   -2.31632
       O     9.16479   11.59429   -1.49319
      H1     9.90489   11.69830   -0.84821
       H    15.67817   13.47072   -6.26759
       O    15.21507   13.73901   -7.09045
      H1    15.87784   14.21731   -7.58306
       H    16.79321    6.45109   -8.32678
       O    16.77723    6.96046   -7.53257
      H1    17.54993    7.52880   -7.52268
       H    13.91286   10.18170   -6.55869
       O    13.97925    9.82471   -5.70546
      H1    13.08788    9.79326   -5.37411
       H    16.04815    5.18748    3.13091
       O    16.75159    5.44015    3.68654
      H1    17.24809    4.65461    4.02308
       H    17.76072    9.07153   -3.02617
       O    18.31556    8.36948   -3.41390
      H1    17.76929    7.80281   -3.89101
       H    19.41809   14.15186    4.96525
       O    18.77511   14.05391    4.29681
      H1    18.80947   13.08771    4.15759
       H    12.07746   12.25021    0.93656
       O    11.37355   12.38857    0.29208
      H1    11.75024   13.14989   -0.20173
       H    15.69777    7.34435    0.03665
       O    14.77543    7.29706   -0.27463
      H1    14.66949    6.77032   -1.09949
       H    13.52440   10.07797   -0.94263
       O    14.39490    9.98820   -0.51806
      H1    14.61962    9.04900   -0.61909
       H    15.21274    6.31068   -3.56056
       O    14.39815    6.47383   -3.05169
      H1    14.20350    7.34639   -3.32052
       H    14.12651   13.26297   -0.69340
       O    14.55083   12.75992   -0.03466
      H1    14.28733   11.89177   -0.32381
       H    18.67903    8.63984   -8.57593
       O    19.01282    7.95060   -8.03763
      H1    19.15206    7.30197   -8.71824
       H    14.83862   10.10906    3.63002
       O    13.85329   10.19430    3.59524
      H1    13.55290   10.25748    4.49701
       H    13.12160   13.52124    3.12955
       O    12.69923   12.69054    2.95177
      H1    13.18717   11.94135    3.32544
       H    10.77017    7.81575   -5.08460
       O    11.04527    8.68935   -5.49549
      H1    10.50026    9.29770   -4.89649
       H    14.68884   17.83701   -4.18502
       O    15.07538   17.48561   -3.37306
      H1    15.08904   16.50784   -3.41870
       H    13.50611    4.39592   -1.10317
       O    12.86229    5.00054   -0.81946
      H1    13.16884    5.39073    0.02375
       H    18.43829   15.03538   -5.24675
       O    18.73579   14.55048   -4.48382
      H1    18.87341   15.22010   -3.80150
       H    16.96327    6.86353    1.86867
       O    17.36827    7.37285    1.13114
      H1    17.89648    6.70214    0.61288
       H    14.10004   15.00342   -6.47550
       O    13.26192   15.45010   -6.60477
      H1    12.68136   15.17096   -5.88347

