150
frame 2 | Written by MDAnalysis XYZWriter (release 2.4.3)
       H   -16.95272   -5.96342   -2.45806
       O   -17.79934   -6.28747   -2.08374
      H1   -18.46354   -6.04307   -2.66072
       H   -16.71445  -11.49030    0.26361
       O   -17.14509  -11.27876   -0.58209
      H1   -18.02353  -11.70815   -0.39161
       H   -16.29478   -6.73907    1.51913
       O   -15.68441   -7.38418    1.14173
      H1   -16.03641   -7.59467    0.29909
       H   -17.44545   -5.06781   -6.94641
       O   -17.94736   -5.44245   -6.21744
      H1   -18.20209   -4.69900   -5.67653
       H   -16.39837   -9.33613    3.55111
       O   -15.86943   -9.78160    2.89922
      H1   -16.00743   -9.17876    2.18382
       H   -18.94766   -3.22657   -0.33890
       O   -18.30177   -3.39153    0.41832
      H1   -18.26523   -2.51725    0.79260
       H   -18.86797  -11.62400    2.32958
       O   -19.55226  -11.12861    1.76685
      H1   -19.40926  -10.24743    2.12586
       H    -8.62797   -7.67643    2.34478
       O    -9.26158   -7.57393    3.06458
      H1    -9.84774   -8.34320    2.89048
       H   -14.85889   -5.79100   -3.22134
       O   -15.60936   -5.66100   -3.81710
      H1   -15.62156   -6.43709   -4.37800
       H   -12.86895   -3.34572   -1.24861
       O   -12.07636   -2.77596   -1.49499
      H1   -11.74280   -2.49292   -0.62406
       H   -15.94093   -4.06496   -4.13423
       O   -16.29809   -3.16159   -3.91268
      H1   -15.54356   -2.55728   -4.20959
       H   -10.91841   -4.42139    2.95019
       O   -10.76125   -3.81645    3.67995
      H1   -10.11868   -3.14134    3.37728
       H   -17.20176   -9.27920    6.39230
       O   -16.74736   -9.77886    7.10060
      H1   -16.36728   -9.17479    7.79406
       H   -17.81045  -13.23080    3.73214
       O   -17.64484  -12.26170    3.61251
      H1   -16.76065  -12.10162    4.05026
       H   -11.24827  -13.18087    0.19175
       O   -10.48994  -12.71563   -0.15690
      H1   -10.77459  -11.81381   -0.47541
       H   -13.92100   -0.79496    3.00346
       O   -14.21753   -1.44395    2.36936
      H1   -14.38637   -2.28517    2.79193
       H   -16.18909   -1.38973   -0.00147
       O   -16.42632   -0.90328    0.81959
      H1   -15.73952   -1.21309    1.46723
       H   -18.92699   -6.70264    0.11265
       O   -19.31269   -6.01473    0.71085
      H1   -18.83727   -5.23342    0.38099
       H   -14.91123   -4.38295    3.16957
       O   -15.26040   -3.91639    2.39167
      H1   -14.78481   -4.07789    1.56840
       H   -10.93308  -10.34120    4.12743
       O   -10.96748   -9.91885    3.28528
      H1   -10.56622  -10.60468    2.76385
       H   -16.40607  -12.26352    2.23998
       O   -15.65613  -12.50901    1.59629
      H1   -14.85321  -12.15237    2.02546
       H   -18.45825   -9.09644    4.72526
       O   -17.58360   -8.76537    4.62360
      H1   -17.69766   -7.84098    4.33542
       H   -16.06750   -8.49502   -5.04403
       O   -15.37711   -7.97488   -5.52327
      H1   -15.44535   -8.32019   -6.40041
       H   -14.24425   -5.64173    4.68966
       O   -14.82465   -4.93422    4.89082
      H1   -14.29216   -4.29007    5.42952
       H   -13.03333   -9.54572   -5.17542
       O   -13.02966   -8.88729   -4.48638
      H1   -13.91207   -8.53249   -4.68310
       H   -19.95680  -12.21822   -1.00705
       O   -19.22874  -12.81502   -1.16662
      H1   -18.83220  -12.53714   -2.00936
       H   -11.66671   -7.97322   -3.38045
       O   -10.79264   -7.93007   -2.93532
      H1   -10.10422   -8.11892   -3.58333
       H   -17.71447  -10.96096   -5.34836
       O   -17.27147  -10.82719   -4.48280
      H1   -17.68932  -10.05427   -4.18399
       H   -12.04538   -4.61735   -4.56324
       O   -12.01961   -4.62329   -3.59127
      H1   -11.62986   -3.82053   -3.31469
       H   -18.12765   -9.71869   -0.48493
       O   -18.84900   -9.08555   -0.61327
      H1   -18.52218   -8.58959   -1.41516
       H   -14.25719  -10.30715    2.99940
       O   -13.51576  -10.90585    2.78563
      H1   -12.66105  -10.49998    2.95143
       H   -15.02705  -12.52420   -1.47665
       O   -14.13430  -12.25250   -1.39517
      H1   -13.61854  -13.09002   -1.51894
       H   -18.68121  -13.75831    0.24641
       O   -18.29264  -14.07791    1.10516
      H1   -17.36148  -14.05277    0.83803
       H   -11.94701   -3.26591    1.25372
       O   -11.67961   -2.33785    1.23724
      H1   -12.43082   -1.82962    1.61742
       H   -12.05427   -6.06820    1.28958
       O   -11.50284   -5.29165    1.38453
      H1   -10.79120   -5.37748    0.76555
       H   -17.17638   -3.37777    4.61087
       O   -17.60383   -3.09884    3.77674
      H1   -16.97931   -3.37587    3.06323
       H    -9.20571  -10.60571   -2.26955
       O    -9.96688  -10.29552   -1.77385
      H1   -10.31487   -9.48100   -2.22283
       H   -16.23573  -12.30184   -4.41747
       O   -15.66557  -13.07166   -4.54955
      H1   -16.17336  -13.86299   -4.74870
       H   -13.82255  -12.13254    4.21852
       O   -14.55355  -12.45559    4.78439
      H1   -14.59387  -11.68475    5.38510
       H   -11.87326   -6.68302    4.62763
       O   -12.82884   -6.85976    4.47606
      H1   -12.87419   -7.34991    3.61767
       H   -16.36743   -2.67859   -2.07351
       O   -16.27596   -2.82146   -1.11277
      H1   -17.10410   -3.10145   -0.69832
       H   -12.76980   -6.39706   -1.30402
       O   -13.39848   -6.02430   -1.88575
      H1   -12.90996   -5.30092   -2.37790
       H   -12.82053  -11.59969   -3.10472
       O   -12.04668  -11.96423   -3.56674
      H1   -11.25972  -11.70493   -3.02718
       H   -19.18367   -7.84409   -4.91121
       O   -18.25174   -7.88175   -5.04495
      H1   -18.07086   -6.97267   -5.41413
       H   -12.69298  -14.95321    0.08220
       O   -12.73374  -14.20226    0.70034
      H1   -13.69483  -13.93113    0.70802
       H   -17.83659   -5.50824    2.55981
       O   -17.31751   -6.23982    2.90678
      H1   -17.26254   -6.02866    3.91233
       H   -16.46932   -5.66556    5.62424
       O   -17.41635   -5.92331    5.49188
      H1   -17.39504   -6.68269    6.09338
       H   -12.74293   -9.56888   -1.28688
       O   -12.76414   -9.88416   -0.39307
      H1   -13.25738  -10.73454   -0.51317
       H   -13.92892   -7.54457    1.21296
       O   -12.98520   -7.70265    1.20425
      H1   -12.95291   -8.56087    0.74858
       H   -13.87769   -4.89633   -0.63612
       O   -13.96821   -3.97254   -0.26723
      H1   -14.77616   -3.52806   -0.56401

