150
frame 11 | Written by MDAnalysis XYZWriter (release 2.4.3)
       H    -8.28579  -18.00980   -9.54562
       O    -8.59546  -18.62287  -10.28218
      H1    -7.91798  -18.38796  -10.95712
       H    -4.64135  -16.50431   -9.99689
       O    -5.46201  -16.50401  -10.56395
      H1    -5.54959  -17.42088  -10.85208
       H    -9.64785  -18.50085   -4.01962
       O    -9.29469  -18.13073   -4.80485
      H1    -8.45556  -18.53210   -5.04898
       H    -8.27920  -18.88887  -14.64696
       O    -8.32792  -17.89941  -14.50034
      H1    -7.50608  -17.62481  -14.04543
       H    -4.21480  -13.81376  -13.93265
       O    -4.23606  -13.80708  -13.01831
      H1    -3.58950  -14.50222  -12.74808
       H    -8.59519  -12.01001  -10.56473
       O    -8.44383  -11.47007  -11.32329
      H1    -7.51055  -11.18381  -11.15857
       H   -10.78216  -17.43084  -11.91167
       O   -10.81170  -17.21024  -10.94036
      H1    -9.97645  -17.61194  -10.58886
       H    -5.13637  -18.08579   -3.18414
       O    -4.24211  -18.42197   -3.29986
      H1    -3.80040  -17.88504   -3.95421
       H    -4.26722  -17.85668  -13.62965
       O    -4.97098  -17.20675  -13.38507
      H1    -4.66553  -16.70779  -12.60945
       H   -12.18341  -19.60756   -8.63988
       O   -12.51270  -19.40628   -7.70250
      H1   -13.40419  -19.08090   -7.85696
       H   -10.77974  -13.95889  -11.04743
       O   -10.72548  -14.48117  -10.23781
      H1   -10.55673  -15.41078  -10.54571
       H    -9.35103  -13.79794  -16.20540
       O    -9.31344  -13.03125  -15.66191
      H1    -8.72881  -13.29939  -14.91446
       H    -9.26447  -13.72667   -9.44286
       O    -8.72802  -13.08443   -9.01476
      H1    -9.18488  -12.84615   -8.18651
       H   -13.04992  -15.35445  -14.60287
       O   -12.10252  -15.11525  -14.80108
      H1   -12.03305  -14.56095  -15.56020
       H    -8.83083  -16.75323   -7.96668
       O    -8.02666  -16.72488   -8.49846
      H1    -8.12461  -16.22344   -9.38449
       H    -7.01873  -19.85209   -5.89586
       O    -6.48557  -19.08035   -5.57857
      H1    -5.99104  -18.74409   -6.35723
       H    -5.44939  -17.83734  -16.01829
       O    -5.50617  -16.84542  -16.06557
      H1    -5.23611  -16.55397  -15.14558
       H    -5.04314  -17.44854   -7.72421
       O    -5.67176  -18.16091   -7.86368
      H1    -6.46679  -17.66973   -7.99712
       H    -2.26859  -16.86859  -10.84940
       O    -2.73226  -17.72124  -10.52651
      H1    -2.29078  -17.85755   -9.64901
       H    -7.23834  -19.98257  -18.33265
       O    -7.41871  -19.24007  -17.79178
      H1    -7.29843  -18.59344  -18.49501
       H   -15.97454  -18.71647   -5.25188
       O   -15.48406  -18.36513   -6.07407
      H1   -14.73423  -17.80328   -5.73294
       H    -6.76168  -13.23865  -12.98578
       O    -7.63271  -13.43972  -13.39917
      H1    -8.22845  -13.12791  -12.70354
       H   -10.16386  -11.48103   -6.99498
       O    -9.66916  -12.27673   -6.78117
      H1   -10.39141  -12.98147   -6.86793
       H    -8.92735  -16.42728   -4.84754
       O    -8.79652  -15.45234   -4.79990
      H1    -9.39312  -15.10593   -4.15688
       H    -4.09729  -14.83273   -7.17895
       O    -4.63781  -15.66617   -7.06288
      H1    -5.55737  -15.30522   -6.84599
       H    -6.61092  -18.12473   -4.07510
       O    -6.77262  -17.65033   -3.27929
      H1    -6.65058  -16.72157   -3.44627
       H   -15.12934  -18.56183  -10.52211
       O   -16.07354  -18.71201  -10.29163
      H1   -16.57083  -18.32640  -11.04353
       H    -1.01837  -15.76263  -12.39121
       O    -1.83205  -15.41293  -12.01013
      H1    -1.57069  -14.75679  -11.39925
       H    -3.68991  -16.46697   -5.85121
       O    -3.08275  -16.70583   -5.11933
      H1    -2.21877  -17.00635   -5.48208
       H   -10.95163  -12.21246  -12.75663
       O   -10.66461  -13.14488  -12.69313
      H1   -10.82373  -13.52022  -13.58079
       H    -2.00871  -13.50181   -7.51475
       O    -2.66754  -13.99103   -7.92687
      H1    -3.19860  -13.34272   -8.42048
       H    -0.40352  -18.63804   -8.84495
       O    -1.15836  -18.70048   -8.25161
      H1    -1.46223  -19.64380   -8.33953
       H    -1.66366  -20.20848  -12.09733
       O    -0.90373  -19.91638  -11.57986
      H1    -1.08399  -19.01395  -11.31247
       H   -12.68744  -17.93868  -11.09230
       O   -13.64371  -17.75580  -11.33495
      H1   -13.66398  -17.13364  -12.10424
       H    -8.37737  -14.88324  -11.75372
       O    -7.82018  -15.37439  -11.17684
      H1    -7.05555  -15.46872  -11.71153
       H    -7.90763  -15.56599  -16.94646
       O    -8.90688  -15.57334  -16.82917
      H1    -8.94271  -16.29037  -16.12708
       H   -11.56431  -14.37414   -8.44355
       O   -11.55504  -14.42812   -7.47159
      H1   -11.09919  -15.30813   -7.19799
       H   -11.18701  -16.57465  -14.20647
       O   -10.89906  -17.41425  -13.80351
      H1   -10.01253  -17.48645  -14.12759
       H   -11.27359  -17.82101   -7.69936
       O   -10.66598  -17.19715   -7.36762
      H1   -10.25433  -17.65130   -6.63706
       H   -13.23269  -18.34875   -3.11485
       O   -12.39192  -18.29951   -3.60258
      H1   -12.51176  -17.73345   -4.32802
       H   -13.25036  -12.36858   -9.88532
       O   -13.47511  -11.40271   -9.78868
      H1   -13.64143  -11.34136   -8.83363
       H    -7.39440  -14.60240   -5.68029
       O    -6.71545  -13.99692   -6.08509
      H1    -7.08898  -13.44439   -6.76499
       H   -14.52378  -17.15333  -14.33588
       O   -14.71239  -16.48410  -13.59248
      H1   -15.57063  -16.71943  -13.23184
       H   -15.56398  -15.76469   -8.20351
       O   -15.17417  -15.70211   -9.07628
      H1   -15.33544  -16.54478   -9.50603
       H    -4.09577  -19.11356  -10.38156
       O    -4.97340  -19.50688  -10.16795
      H1    -5.35370  -18.93579   -9.46585
       H    -6.87600  -11.03566   -7.98805
       O    -6.39218  -11.83200   -8.20286
      H1    -7.08229  -12.40214   -8.51301
       H    -3.68182  -11.77459  -10.07913
       O    -3.93957  -11.91404   -9.12171
      H1    -4.87310  -11.66056   -9.19281
       H   -12.85793  -14.53086  -11.09512
       O   -13.72589  -14.02817  -11.03671
      H1   -14.22156  -14.58586  -10.44589
       H   -13.44080  -15.74549   -5.14112
       O   -13.09239  -16.54803   -5.59658
      H1   -12.81565  -16.25358   -6.51237
       H   -10.48842  -19.44655  -17.36794
       O   -10.11875  -19.46953  -18.24738
      H1    -9.18218  -19.58082  -18.01745

