150
frame 8 | Written by MDAnalysis XYZWriter (release 2.4.3)
       H    -4.21453   -2.63242   11.74116
       O    -4.57948   -1.77185   11.96505
      H1    -3.79419   -1.30221   12.29924
       H    -1.07932   -6.13345    5.83489
       O    -0.95642   -6.98697    6.34400
      H1    -1.79131   -7.43559    6.26276
       H     0.24651  -12.14763   11.22637
       O     0.68811  -12.99789   11.30210
      H1     0.86660  -13.22179   10.37193
       H     1.33279   -6.81350   14.42764
       O     2.02314   -6.51527   15.03767
      H1     2.83318   -6.82366   14.71449
       H    -3.58459   -4.83290   12.02278
       O    -3.12037   -4.06169   11.70039
      H1    -3.11783   -4.15208   10.75934
       H    -2.06234  -12.26838   18.11821
       O    -2.60772  -11.66621   17.62647
      H1    -2.25483  -11.75006   16.72044
       H    -0.91905   -7.45816   13.02867
       O    -0.28455   -6.77984   13.46945
      H1     0.10964   -6.31435   12.78105
       H     4.27609   -4.97758   15.53205
       O     4.74796   -4.13609   15.46615
      H1     5.64061   -4.35687   15.02479
       H    -0.79308   -4.34388    7.81793
       O    -1.34865   -3.67692    7.39460
      H1    -0.88573   -2.93485    6.95022
       H    -2.77310   -6.70089    9.44830
       O    -1.86996   -7.01162    9.65208
      H1    -1.38771   -6.25997    9.11273
       H    -2.80462   -8.95982   12.29218
       O    -1.94982   -8.54437   12.05388
      H1    -2.11542   -8.12802   11.11863
       H    -1.40977  -12.29485   14.54137
       O    -1.68957  -11.57892   15.11369
      H1    -0.99668  -10.90071   15.06574
       H    -0.23992   -3.31534   14.07403
       O    -1.07548   -3.12111   13.52095
      H1    -1.14646   -2.17571   13.48815
       H    -5.06053  -11.10452   16.42938
       O    -4.68742  -10.60647   15.63583
      H1    -3.80396  -11.00394   15.51105
       H    -1.06782   -7.52736   16.47799
       O    -1.55103   -8.33537   16.26028
      H1    -2.45370   -8.24393   15.95657
       H    -5.28084   -6.82751   10.32917
       O    -4.89892   -6.79198    9.45106
      H1    -4.77384   -7.68165    9.12730
       H     0.60426  -10.85497   16.25198
       O     0.49441  -10.09141   15.64665
      H1    -0.32135   -9.56138   15.81270
       H    -3.76458  -12.03087   10.73255
       O    -4.14438  -12.42364   11.53295
      H1    -4.31839  -13.31740   11.24365
       H    -0.33222   -2.32783   10.39923
       O     0.08050   -2.73182   11.15775
      H1    -0.59432   -2.85601   11.81792
       H    -1.76039   -4.25239   14.61023
       O    -2.17512   -4.80898   15.23484
      H1    -1.93254   -5.67076   14.85418
       H     4.70002  -10.39138   14.52862
       O     5.04688   -9.90446   13.74689
      H1     4.39105   -9.91387   13.02289
       H    -0.83348  -10.13191    8.06859
       O    -1.32218  -10.75579    7.48666
      H1    -0.69637  -11.38682    7.06220
       H    -0.30883   -9.57838   11.83521
       O     0.22467  -10.16277   11.24820
      H1     1.06239  -10.19571   11.66171
       H    -5.16861  -11.73605   12.79437
       O    -5.82767  -11.16545   13.27006
      H1    -5.58852  -11.08968   14.17983
       H    -3.22662   -9.19903    5.70028
       O    -2.81311   -8.86256    6.49900
      H1    -2.24065   -9.63240    6.86060
       H     2.14606   -5.91110   11.18608
       O     1.27290   -5.84216   10.81784
      H1     0.98134   -4.94611   11.09386
       H     3.55079  -10.36076   16.64882
       O     4.10773  -10.99070   16.15346
      H1     4.38813  -11.57958   16.83710
       H    -3.43932   -9.27331   18.18632
       O    -3.95610   -8.82719   18.88121
      H1    -4.84640   -8.79914   18.53365
       H    -0.69591  -13.48408   12.31314
       O    -1.31147  -13.36415   13.08427
      H1    -2.10821  -12.92753   12.69289
       H     3.02297   -7.87804    7.64891
       O     2.81438   -8.43474    8.38621
      H1     1.89786   -8.31575    8.73517
       H    -6.28653   -9.60210   16.10013
       O    -6.93170   -8.90376   15.93150
      H1    -7.79140   -9.27658   15.86011
       H     4.23353   -4.32291   11.51404
       O     4.28453   -5.25673   11.22756
      H1     5.19054   -5.53559   11.33482
       H    -0.01087   -9.30116    9.91350
       O    -0.14161   -8.93608    9.01308
      H1    -0.78866   -8.20440    9.00232
       H     4.38458   -6.72465   12.78557
       O     4.35391   -7.07550   13.67747
      H1     4.66691   -7.99506   13.63958
       H    -4.26988   -9.12880    7.61425
       O    -5.02222   -9.21717    8.21751
      H1    -5.80662   -9.02888    7.68277
       H    -4.13119   -4.05217    8.02049
       O    -4.31756   -4.22202    8.94362
      H1    -4.62860   -5.12669    8.79885
       H     3.82676   -9.75010   11.26308
       O     3.20916  -10.19592   11.83261
      H1     3.42023  -11.11289   11.81771
       H    -5.11074   -9.90032   12.44902
       O    -4.52659   -9.21188   12.09518
      H1    -4.77882   -8.35157   12.32744
       H     2.93120  -11.07490    7.58833
       O     2.03171  -10.99064    7.83915
      H1     1.98406  -10.10163    8.26465
       H     2.04776   -2.98384   14.90408
       O     1.46022   -3.75596   14.69041
      H1     2.00774   -4.53847   14.80961
       H    -2.02477   -5.29245   18.88130
       O    -2.57682   -4.78853   18.29622
      H1    -2.26254   -4.83881   17.39307
       H    -0.52040   -5.28807   16.04169
       O     0.03905   -5.88830   16.58286
      H1     0.80486   -6.12723   16.04926
       H     0.77900   -1.05157   12.18030
       O     1.22788   -0.36060   12.68120
      H1     0.94411    0.53762   12.53143
       H     0.48129   -6.49248    7.74994
       O     0.54290   -5.57790    8.18703
      H1     0.88229   -5.65816    9.08745
       H    -4.32677   -6.76311   15.82532
       O    -3.93892   -7.38656   15.18554
      H1    -4.64901   -8.07714   15.07781
       H    -4.14679   -5.29394   17.35909
       O    -4.96803   -5.81022   17.09620
      H1    -5.57459   -5.11245   16.82781
       H    -3.02020  -11.48619    8.29561
       O    -3.93808  -11.82874    8.51134
      H1    -4.42366  -10.99559    8.44370
       H    -5.46208   -5.60062   12.60093
       O    -4.75561   -6.24230   12.52635
      H1    -4.31593   -6.25325   13.41518
       H     2.45201   -5.85699   18.37881
       O     1.87389   -5.11333   18.58969
      H1     1.12160   -5.43977   18.09360
       H     1.88114   -9.08214   16.65715
       O     2.65724   -9.06285   17.22496
      H1     2.96777   -8.14073   17.22439

