150
frame 9 | Written by MDAnalysis XYZWriter (release 2.4.3)
       H    -4.42875    5.08003   12.90129
       O    -4.35225    4.24465   12.31208
      H1    -4.29947    3.49098   12.90730
       H    -7.24054    2.00134   11.05425
       O    -6.57676    1.68087   11.64652
      H1    -6.29652    2.40740   12.12155
       H    -3.62040   -2.84433   11.87163
       O    -4.26180   -2.20415   12.25748
      H1    -3.63922   -1.73654   12.84632
       H     4.61671   -2.28568   13.03092
       O     5.25466   -2.65980   12.41810
      H1     5.02507   -2.41370   11.52827
       H    -0.05049    3.47044   13.93001
       O    -0.40132    3.49743   14.81448
      H1     0.18011    2.84500   15.25566
       H     1.66590   -1.62585   18.86652
       O     1.99421   -1.81525   17.97207
      H1     2.18329   -2.75177   17.81053
       H    -4.02966    2.56974   17.85116
       O    -3.50252    3.22464   18.29282
      H1    -3.22741    3.83742   17.56831
       H    -3.23989   -4.53777   11.74451
       O    -3.07347   -4.05289   10.93731
      H1    -3.68436   -4.22724   10.21210
       H    -6.87627   -4.43574   11.41365
       O    -6.70577   -4.54803   12.40055
      H1    -6.59807   -3.72321   12.78737
       H    -1.54769   -0.30309   13.04021
       O    -1.99511   -0.73303   13.85164
      H1    -2.00049   -0.04802   14.52326
       H    -0.11273   -7.19659   12.43149
       O     0.80205   -6.88921   12.31272
      H1     0.90221   -6.29680   11.54006
       H     1.43941    4.78296   14.52156
       O     2.21225    4.46319   14.06484
      H1     2.63052    3.84787   14.69123
       H    -0.87563   -2.66130    7.88682
       O    -1.58818   -2.13120    7.54641
      H1    -1.15610   -1.42974    7.02129
       H    -7.04093    1.56152   14.51669
       O    -6.73254    2.43947   14.96821
      H1    -7.39447    3.03046   15.13052
       H    -3.31625   -7.70238   10.83097
       O    -2.51129   -7.24395   10.35189
      H1    -2.62139   -6.28645   10.26548
       H     0.82282    1.12587   16.72968
       O     1.10360    2.05338   16.62173
      H1     0.58583    2.61382   17.18322
       H     2.68067    0.64329    9.75836
       O     2.31915   -0.18799   10.02555
      H1     3.17939   -0.72614   10.14946
       H    -1.84026    0.36641   19.60971
       O    -1.72292   -0.26015   18.85596
      H1    -2.55329   -0.40356   18.41395
       H     0.01988   -3.14499   14.30538
       O    -0.86269   -3.16884   13.86973
      H1    -1.20053   -2.23680   14.06250
       H    -0.05799   -2.15770   10.93421
       O     0.59649   -2.51854   11.57286
      H1     0.12590   -2.89438   12.28787
       H    -1.97087   -4.24864   14.67632
       O    -2.27236   -4.91323   15.26400
      H1    -3.20260   -4.93648   15.32933
       H     2.74684   -1.04071   13.84540
       O     3.57915   -1.49598   14.15886
      H1     4.03285   -0.96896   14.81833
       H     2.27146   -4.79934   10.94218
       O     1.38719   -4.89030   10.63027
      H1     0.98438   -4.02440   10.72559
       H     0.54206   -0.77387   15.34434
       O     0.33698   -0.45010   16.24342
      H1     0.77876   -1.13474   16.77635
       H    -3.66710   -2.33276   19.48950
       O    -4.11817   -3.10286   19.86023
      H1    -3.66776   -3.83067   19.47754
       H    -2.03563   -2.43110   10.28325
       O    -1.51239   -1.62501   10.24769
      H1    -1.58340   -1.40845    9.29042
       H    -8.69856   -1.20048   17.30109
       O    -8.57359   -1.67263   16.44635
      H1    -7.73407   -2.20281   16.61146
       H    -5.85082   -2.14883   13.33791
       O    -6.25166   -2.18894   14.18630
      H1    -6.98024   -1.57766   14.20639
       H    -5.70739   -1.14785    9.69227
       O    -4.73872   -1.26763    9.62638
      H1    -4.43874   -1.45418   10.49456
       H    -4.13863   -0.38407   16.72608
       O    -3.69721   -1.16321   17.07123
      H1    -2.81108   -1.21152   16.65668
       H    -1.73232    4.40487   16.07668
       O    -2.57697    4.79453   16.25096
      H1    -2.33540    5.72685   16.24716
       H    -1.76155    2.94828   18.06904
       O    -0.87713    3.32216   18.11563
      H1    -0.74727    3.53962   19.03481
       H    -4.20607   -0.33713    8.28005
       O    -3.95577    0.21079    7.50653
      H1    -3.56739    0.96835    7.94808
       H     2.90812    2.23086   16.63426
       O     3.79891    2.51441   16.39311
      H1     4.37093    2.43537   17.25088
       H     2.45564   -3.29686   14.94377
       O     1.72656   -3.77782   15.31939
      H1     1.90313   -4.66253   14.94908
       H    -1.84076   -5.73654   18.78651
       O    -2.35727   -4.97751   18.36312
      H1    -1.91508   -4.73105   17.52776
       H    -0.70870   -5.45009   16.02319
       O    -0.20217   -6.09779   16.55592
      H1     0.66562   -5.95677   16.19639
       H    -1.62957    0.35228   11.17350
       O    -1.16164    0.76374   11.86476
      H1    -0.18121    0.50129   11.83242
       H     1.03450   -1.00846   12.50685
       O     1.06580   -0.58376   13.39280
      H1     1.31688    0.33796   13.22697
       H    -7.12142    0.60444   12.75665
       O    -7.49775    0.21163   13.59123
      H1    -8.49817    0.39585   13.51464
       H    -6.12354   -2.95817   15.92944
       O    -5.96282   -3.35101   16.81250
      H1    -5.24537   -2.76076   17.13525
       H    -4.08624   -5.47145   17.78403
       O    -5.00670   -5.56668   17.46004
      H1    -5.39671   -4.68346   17.27363
       H    -1.41742    2.07936   15.35077
       O    -1.81085    1.28825   15.78611
      H1    -1.05327    0.69784   16.11975
       H    -7.08716    0.87188    8.40833
       O    -6.36438    1.29010    8.96551
      H1    -6.41762    0.88322    9.84260
       H     2.74452    1.94493   11.88049
       O     1.86810    2.02767   12.27442
      H1     1.75105    2.97749   12.25641
       H    -5.62393    1.03259   17.61268
       O    -5.23225    1.26398   16.77335
      H1    -5.97941    1.63163   16.25224
       H    -3.44308    1.66926   14.43659
       O    -4.13563    1.89399   13.83494
      H1    -4.91985    2.04097   14.33882
       H    -1.76504    3.80720   12.73394
       O    -0.95033    3.69210   12.19425
      H1    -0.95522    2.72448   12.02534
       H    -5.37535   -5.60451   13.29491
       O    -4.45953   -5.92232   13.30689
      H1    -4.39330   -6.52016   14.06397
       H    -4.45801    3.95788   10.54142
       O    -4.56840    3.59378    9.64491
      H1    -4.93913    2.73378    9.86251

