150
frame 7 | Written by MDAnalysis XYZWriter (release 2.4.3)
       H    17.86073    3.91387   -6.56214
       O    18.50202    4.08612   -5.84118
      H1    18.82931    3.25552   -5.52972
       H    15.80582    8.61553   -7.32438
       O    15.29986    9.34494   -6.95677
      H1    14.63280    8.93898   -6.38794
       H    13.00906    9.03858  -13.98269
       O    12.56465    9.89548  -14.09692
      H1    13.22779   10.55334  -13.72636
       H    15.20912    1.97826  -18.19318
       O    15.87657    2.44755  -18.70863
      H1    15.98391    1.96805  -19.56025
       H    19.11566    4.68164   -9.17593
       O    19.12771    5.55104   -9.65000
      H1    19.24000    5.47645  -10.63917
       H    13.74893   -1.19501  -15.93270
       O    14.00668   -0.30693  -15.74248
      H1    15.01332   -0.43831  -15.69321
       H    13.36085    2.21963  -17.81284
       O    13.73954    1.96267  -16.96203
      H1    13.57873    0.99973  -16.84238
       H    15.70718   11.63081  -11.86270
       O    16.63688   11.46570  -11.82637
      H1    16.97880   12.12392  -11.20680
       H    14.52465    8.77010   -8.71632
       O    14.44482    8.09941   -9.39309
      H1    13.88381    8.59406  -10.02525
       H    13.47432    7.57877  -17.07163
       O    14.10505    7.84084  -17.76090
      H1    14.42291    7.00637  -18.13903
       H    12.92426    3.83844  -13.58776
       O    12.65663    4.02594  -12.68589
      H1    11.73455    4.03894  -12.77390
       H    18.14269   10.58556   -7.45697
       O    17.80122   10.89539   -8.34995
      H1    17.18000   10.21087   -8.64723
       H    16.89002    6.78100   -5.42546
       O    16.85920    6.61887   -4.43297
      H1    16.70486    5.66317   -4.30770
       H    19.41391   11.64650  -15.44806
       O    19.74010   11.56859  -14.53512
      H1    19.52014   10.62448  -14.40419
       H    17.53811   -0.76410  -14.35988
       O    16.78486   -0.16372  -14.56805
      H1    17.14652    0.34356  -15.30135
       H    16.91289    4.87993  -17.86997
       O    17.77779    4.83131  -17.47319
      H1    18.29883    5.38732  -18.09195
       H    17.17479   10.69425  -16.77465
       O    17.36376   11.60149  -16.46818
      H1    17.10073   12.11725  -17.18798
       H    18.89936   -2.25712   -8.15163
       O    19.58780   -1.68349   -8.47556
      H1    19.89858   -2.35503   -9.14915
       H    14.47050    7.10014  -12.53950
       O    13.59330    7.41293  -12.75659
      H1    12.97302    7.14459  -12.08793
       H    16.39955    7.79541  -15.50992
       O    15.84644    8.59225  -15.35496
      H1    15.29906    8.68906  -16.13286
       H    18.27063    9.33457  -18.87559
       O    18.63922    9.34061  -18.00248
      H1    19.50860    9.74984  -18.03747
       H    17.88095   -1.76561  -12.28388
       O    18.01482   -2.40042  -13.03419
      H1    18.99361   -2.54334  -13.08012
       H    15.20345    4.16659  -18.42471
       O    15.25319    5.07814  -18.46712
      H1    15.64829    5.35554  -19.34411
       H    20.01214    2.47267   -7.96841
       O    19.68771    2.81977   -8.86387
      H1    18.80210    2.48435   -8.95872
       H    18.45991    6.06998  -12.93768
       O    18.98143    5.47080  -12.36287
      H1    18.66252    4.58652  -12.54247
       H    16.57503    7.88608  -12.01488
       O    16.36073    7.19772  -12.61429
      H1    16.26975    7.54783  -13.48489
       H    19.06191   -2.33513  -15.80862
       O    18.53522   -2.84216  -16.46730
      H1    18.32857   -2.14897  -17.13624
       H    15.85231    2.81239  -13.56576
       O    16.00831    2.06794  -13.01845
      H1    16.23211    1.39425  -13.62039
       H    13.89733    0.52066  -14.20336
       O    13.65770    0.79797  -13.28083
      H1    14.52647    1.16558  -12.96332
       H    19.35407    7.72444  -18.42287
       O    19.39940    6.91700  -19.06153
      H1    19.52794    7.33275  -19.92241
       H    17.66224   -0.06806  -18.41029
       O    17.74147   -1.02915  -18.60334
      H1    17.38400   -1.10418  -19.50524
       H    10.65653    5.82546  -11.72603
       O    11.28988    6.48687  -11.36510
      H1    11.89886    5.95598  -10.81737
       H    17.37126    2.35924  -10.08116
       O    17.06508    1.54450   -9.62461
      H1    16.40849    1.83130   -8.98775
       H    13.02628    3.24712  -15.76682
       O    12.28610    3.81763  -15.51776
      H1    11.53562    3.35737  -15.77507
       H    15.82340    8.72853  -10.13993
       O    16.64806    9.12903  -10.48491
      H1    16.49338    9.94719  -11.03090
       H    16.89528    6.16261   -7.52204
       O    17.11673    7.07163   -7.24864
      H1    18.06636    7.31522   -7.45797
       H    17.83897    5.76500  -15.89744
       O    17.85690    6.31805  -15.13858
      H1    18.65576    6.77464  -15.32507
       H    14.32184    2.38693   -8.73327
       O    14.63166    2.34975   -7.87091
      H1    14.97132    1.40548   -7.80636
       H    16.05219    3.84875   -7.88345
       O    16.78484    4.44846   -7.86463
      H1    16.90510    4.61692   -8.79399
       H    16.08482   -0.98722   -7.86114
       O    15.57427   -0.24228   -7.63567
      H1    14.75118   -0.53603   -7.19228
       H    17.63606    0.04359  -10.47345
       O    18.15431   -0.68958  -10.94929
      H1    18.66407   -1.05007  -10.23590
       H    15.42826   -2.09711  -12.84587
       O    14.49341   -2.00272  -12.60813
      H1    14.20211   -1.09893  -12.76469
       H    15.92539    5.35842  -14.58796
       O    15.38539    4.59637  -14.33550
      H1    14.68577    4.84927  -13.77669
       H    13.17596    2.72350  -11.07091
       O    13.53533    2.47138  -10.20655
      H1    12.95317    1.74700   -9.97527
       H    13.62674    6.58253   -9.43328
       O    13.31741    5.69414   -9.77545
      H1    14.02043    5.22725  -10.20543
       H    19.74195    8.98125   -8.58280
       O    19.49413    8.06799   -8.42386
      H1    19.36451    7.54238   -9.24818
       H    18.10347    9.15692  -14.75773
       O    19.04999    9.01246  -14.75290
      H1    19.26304    9.10517  -15.67300
       H    16.67939    5.15782  -11.14372
       O    16.17316    4.46352  -10.66300
      H1    16.16157    3.69154  -11.27402
       H    18.78626    1.25472  -17.29892
       O    17.83671    1.35230  -17.10201
      H1    17.47634    2.04325  -17.68515
       H    17.75093    2.17112  -12.28796
       O    18.46769    2.69238  -11.92040
      H1    19.26210    2.50833  -12.39562

