150
frame 2 | Written by MDAnalysis XYZWriter (release 2.4.3)
       H    -3.06259    3.13900   -2.93885
       O    -3.70487    2.47524   -2.59544
      H1    -4.18993    2.81040   -1.80887
       H    -6.51341    5.89477   -5.26637
       O    -5.99092    5.12143   -5.30793
      H1    -6.47469    4.44911   -4.76397
       H    -4.02955   -2.35665   -6.30906
       O    -3.38929   -1.97588   -6.96195
      H1    -3.94238   -1.68919   -7.69189
       H    -7.48463    2.75661   -4.86760
       O    -6.81856    2.85066   -4.12140
      H1    -7.13771    2.14510   -3.49546
       H    -0.73749   -2.05568   -2.93406
       O    -1.45538   -1.65801   -3.43694
      H1    -1.09561   -1.65975   -4.37575
       H    -3.81669    0.92050   -5.15154
       O    -4.73219    1.03504   -4.91676
      H1    -4.78019    1.74112   -4.29628
       H    -8.74996   -1.42213   -8.47935
       O    -8.99044   -1.95557   -9.29609
      H1    -8.16803   -1.79990   -9.79473
       H   -10.09805   -1.67748    2.00871
       O    -9.15619   -1.67468    2.22477
      H1    -9.11551   -0.90890    2.84941
       H    -2.93320   -5.68825   -5.36103
       O    -3.82125   -6.11423   -5.29025
      H1    -4.06760   -6.27575   -6.24570
       H    -4.66265   -1.75136   -2.54721
       O    -4.01193   -2.20585   -1.97809
      H1    -3.22402   -2.18691   -2.52520
       H    -9.11439    4.14842   -6.07816
       O    -8.77090    3.26140   -6.17556
      H1    -9.50531    2.63200   -6.17752
       H    -1.04337   -3.00753   -6.19481
       O    -0.88306   -2.10219   -6.01716
      H1    -1.56746   -1.74777   -6.56560
       H    -9.84530   -6.54057   -5.74178
       O    -9.27215   -5.98676   -5.15429
      H1    -9.84054   -5.66143   -4.38520
       H    -4.65153    5.99243   -2.88798
       O    -5.03911    6.16507   -2.01729
      H1    -4.73832    5.47480   -1.46395
       H    -6.18767   -3.56074   -9.21936
       O    -6.44896   -3.48761   -8.27439
      H1    -7.43315   -3.58760   -8.33026
       H    -7.79976   -3.16030   -3.82897
       O    -7.22896   -2.61852   -4.41476
      H1    -6.75861   -3.26373   -4.92403
       H     0.57381   -2.76485   -1.24263
       O    -0.30995   -3.19094   -1.29078
      H1    -0.37415   -3.75230   -2.07404
       H    -6.53399    1.83877   -7.50549
       O    -6.41883    0.96304   -7.11736
      H1    -5.92112    1.11411   -6.31312
       H    -3.80091    0.58990    3.23274
       O    -3.81397    1.43368    2.71011
      H1    -4.45527    1.37126    1.98057
       H    -7.45943    3.43569   -7.80364
       O    -6.49769    3.63438   -7.71673
      H1    -6.39001    4.12910   -6.92141
       H    -8.42218   -6.18510   -0.99852
       O    -8.63802   -5.36144   -0.51768
      H1    -7.90776   -5.14728    0.10865
       H    -5.09223    2.01972    0.06625
       O    -5.58583    1.62766    0.75837
      H1    -5.46437    0.68235    0.46721
       H    -1.54941   -3.47712   -9.03933
       O    -2.35579   -3.07335   -9.21845
      H1    -2.75847   -2.88604   -8.35466
       H    -1.34811    1.02142   -4.33330
       O    -0.76228    1.56145   -4.83254
      H1    -0.10345    1.71384   -4.14710
       H    -1.34214    0.15463   -1.01659
       O    -0.43846    0.14688   -0.74261
      H1     0.07970    0.55391   -1.45305
       H    -8.19728    2.56110    2.69121
       O    -7.87227    1.82918    2.12865
      H1    -7.14447    2.13207    1.52792
       H    -4.68114   -1.02163   -0.22060
       O    -5.42891   -1.15751    0.42775
      H1    -6.30729   -1.11288    0.00597
       H    -7.03691    0.17245   -2.66914
       O    -7.64780    0.90656   -2.35451
      H1    -8.00661    0.56762   -1.50004
       H   -11.18537    2.22347   -1.37485
       O   -12.11178    2.41029   -1.62142
      H1   -12.06730    2.67303   -2.60023
       H    -7.07139   -6.96209   -4.28884
       O    -6.39068   -7.47462   -3.89895
      H1    -6.23637   -8.17557   -4.52383
       H    -5.19981   -5.09280   -3.61134
       O    -5.28642   -4.80787   -2.68944
      H1    -4.75881   -4.00109   -2.64275
       H    -7.65620   -0.29411   -6.87324
       O    -8.37130   -0.91560   -6.74865
      H1    -8.04197   -1.43657   -6.01552
       H    -5.48904   -0.03533   -3.97815
       O    -5.76488   -0.68231   -3.30845
      H1    -6.30799   -1.38381   -3.75317
       H    -8.12826   -1.81935   -0.78627
       O    -8.00144   -1.05231   -0.23834
      H1    -7.99030   -1.44499    0.65968
       H    -6.88321    5.27899   -2.44959
       O    -7.80714    4.91896   -2.50613
      H1    -7.72587    4.08205   -2.98519
       H    -9.23705   -5.01797   -6.62150
       O    -9.14755   -4.15303   -7.10313
      H1    -9.04913   -3.47108   -6.39549
       H    -3.19635   -5.57640    0.14389
       O    -4.13863   -5.80893   -0.02781
      H1    -4.27794   -5.57565   -0.92125
       H    -5.48390   -0.04487   -8.52176
       O    -5.00454   -0.76493   -8.94386
      H1    -5.57637   -1.33450   -9.43950
       H    -2.00364   -2.09327    1.75378
       O    -1.15028   -1.64420    1.56689
      H1    -1.31787   -1.33055    0.65454
       H    -4.97693    4.35876    0.27212
       O    -4.37816    4.00784   -0.41201
      H1    -3.48433    4.09229   -0.03571
       H    -9.86565   -3.18002   -1.77940
       O    -9.03027   -3.24967   -2.19195
      H1    -8.72853   -4.04592   -1.73614
       H    -3.26184    4.07130   -7.15312
       O    -2.89454    3.53097   -7.84565
      H1    -3.53963    3.06809   -8.44012
       H    -4.19487   -1.54696    3.19992
       O    -4.02097   -2.22730    2.49999
      H1    -4.66065   -1.92968    1.81168
       H   -11.05094    0.49950   -6.81834
       O   -10.56565    1.01764   -6.16260
      H1    -9.82707    0.42386   -5.92466
       H    -1.45391    3.19283   -4.08924
       O    -1.88090    3.99551   -3.84454
      H1    -1.39054    4.48591   -3.15593
       H    -3.76188   -0.21358   -1.76608
       O    -3.35653    0.25878   -1.04556
      H1    -3.15693    1.13336   -1.38456
       H    -1.26438    1.56959   -6.65415
       O    -1.36251    1.32148   -7.62887
      H1    -2.02422    1.99599   -7.94310
       H    -9.28346    0.62776    0.06343
       O    -9.88262    1.36808   -0.03334
      H1    -9.40350    2.13253    0.25856
       H    -4.57731   -4.55921   -5.78803
       O    -5.16469   -3.81746   -5.80973
      H1    -5.46595   -3.78933   -6.70967
       H    -6.75712   -5.97454    1.36610
       O    -6.55257   -5.02095    1.47981
      H1    -5.74316   -4.84111    1.03433

