150
frame 10 | Written by MDAnalysis XYZWriter (release 2.4.3)
       H    17.72996   16.48144    3.36871
       O    18.08935   16.20712    2.52363
      H1    17.47411   15.47417    2.30711
       H    17.34570    6.39355    7.50544
       O    18.18716    5.87170    7.62244
      H1    18.85155    6.39566    7.19896
       H    14.80527   12.12027    4.66975
       O    15.69725   11.88624    4.39177
      H1    15.60903   11.83580    3.43166
       H    15.00557    2.97749    2.19233
       O    15.33887    3.65673    1.56994
      H1    16.03877    3.29056    0.99898
       H    18.23487    5.97966    3.19933
       O    18.72940    6.24261    2.42588
      H1    19.15365    5.47669    2.04508
       H    14.83550   15.15674    3.06477
       O    13.92139   15.30427    3.27003
      H1    13.99430   15.94197    3.92935
       H    16.15372   11.40381   -3.82191
       O    15.60675   11.96549   -4.43181
      H1    14.77348   12.07296   -4.00773
       H    13.52142    8.21891    2.05630
       O    13.39694    7.30395    1.97022
      H1    13.30629    7.14009    1.01322
       H     7.29656    9.86635    4.10516
       O     7.88805    9.11781    3.92844
      H1     7.79113    8.93528    2.96238
       H    18.83603   10.17894   -3.82940
       O    18.52973    9.96228   -2.95800
      H1    18.98683   10.64600   -2.45488
       H    16.40936   13.62571    3.47177
       O    16.54785   14.09612    2.62667
      H1    16.28407   13.51181    1.88612
       H    12.68415    9.45438   -3.62152
       O    13.04357    9.33725   -2.72809
      H1    12.77606    8.45372   -2.51116
       H    13.57311    4.80023    5.34478
       O    13.34332    3.91710    5.60040
      H1    13.81693    3.89301    6.46208
       H    11.40349   12.32773   -3.30083
       O    10.45612   11.94721   -3.40574
      H1     9.90323   12.74129   -3.41573
       H     8.34824    7.80758    4.98478
       O     8.35336    7.01062    5.58489
      H1     9.22487    6.58674    5.46806
       H     7.50725    9.05304    0.56965
       O     7.59485    8.24114    1.06948
      H1     8.45969    7.92292    0.87950
       H    11.98507    8.07616    7.24257
       O    12.59725    8.55736    6.69323
      H1    12.07487    9.31779    6.37250
       H    18.60236    8.28380    3.56253
       O    18.72341    8.59816    4.44159
      H1    19.34553    7.98004    4.88679
       H    16.58015    8.35768    4.71469
       O    15.77591    8.50011    4.20200
      H1    15.28793    7.72687    4.42181
       H    19.29741   10.67551    0.41576
       O    19.48911    9.81843    0.75082
      H1    18.99576    9.21724    0.18219
       H    12.79942   12.83503   -1.96665
       O    13.02624   12.41162   -2.81846
      H1    13.50389   11.56546   -2.73945
       H    11.41703    5.85704    5.02521
       O    10.71224    5.41080    5.44675
      H1    11.03164    4.71611    6.02713
       H    17.08824   12.13096    5.60833
       O    17.64327   12.43652    6.34671
      H1    18.55543   12.16481    6.14238
       H     8.88658   14.65568   -0.39698
       O     8.91787   14.06264   -1.17086
      H1     9.36738   13.26951   -0.88955
       H    15.61190    8.11980    7.66648
       O    15.47174    7.18329    7.69762
      H1    15.49265    6.93187    8.62228
       H    10.09208   10.38280    5.53253
       O    10.31745   10.30235    4.59395
      H1     9.53842    9.96321    4.22460
       H    10.26996    7.27048   -0.63607
       O    10.14334    7.96546    0.06751
      H1    10.40886    7.50170    0.86729
       H    12.70233   15.37764    2.19863
       O    11.97216   15.59993    1.57737
      H1    12.18753   16.45742    1.19382
       H     8.96070   14.26804    5.29132
       O     9.39786   13.51974    4.91119
      H1    10.32854   13.66115    4.70570
       H    12.57656   14.40462    0.37946
       O    12.74897   14.08404   -0.58259
      H1    12.03434   14.58259   -1.02334
       H    17.22171   11.85698    9.56912
       O    17.01563   12.63791    9.07265
      H1    17.20430   12.28272    8.16108
       H    13.25654    7.22955    4.11797
       O    13.38248    6.61321    4.84628
      H1    13.06479    7.06401    5.62996
       H    13.50775   14.25734    5.96383
       O    13.51345   13.28066    5.91100
      H1    13.63115   12.95545    6.86500
       H    15.33971   12.44598    8.70490
       O    14.53863   12.11851    8.23279
      H1    14.82143   11.43840    7.67462
       H    10.15535   10.69677   -2.22164
       O     9.55330   10.17880   -1.64756
      H1    10.06565    9.47591   -1.11277
       H    14.36024    9.10193    6.73444
       O    15.03881    9.80235    6.73395
      H1    15.52806    9.67934    5.92794
       H    11.16544   11.29437    8.22368
       O    10.81387   11.05236    7.34723
      H1    10.79746   11.90764    6.94792
       H    10.91539    8.33948    3.16657
       O    10.84981    7.50196    2.73685
      H1    11.75037    7.24359    2.51884
       H    19.16630   15.23008    6.76472
       O    18.17977   15.13138    6.78305
      H1    18.02036   14.13548    6.66684
       H    11.00018   12.31044    0.40533
       O    10.07304   12.04762    0.47438
      H1     9.90707   11.33451   -0.16948
       H    16.07011    8.03012   -0.04738
       O    15.20545    8.11587   -0.56178
      H1    14.82135    7.20584   -0.50378
       H    16.86115   10.38041   -1.51028
       O    16.01805   10.75157   -1.18727
      H1    15.51328    9.93687   -1.16912
       H    15.39569    6.65672   -4.36506
       O    14.66982    7.27502   -4.42360
      H1    14.92801    8.07438   -3.90686
       H    14.52219   13.03743    0.27530
       O    15.28071   12.61358    0.67995
      H1    15.65123   11.99920    0.01651
       H    10.18947   15.31434    1.72125
       O     9.27080   15.15597    1.44592
      H1     8.98114   14.34593    1.86263
       H    14.63626   10.79182    1.77946
       O    14.22445   10.12947    2.35671
      H1    14.99640    9.71488    2.71256
       H    12.42078   12.68371    4.10607
       O    11.61569   12.49045    3.57302
      H1    11.28216   11.64627    3.81343
       H    13.95026    4.98037   -1.07832
       O    13.76543    5.12958   -0.17563
      H1    14.45186    4.63363    0.31468
       H     8.86270   12.36283    3.24722
       O     8.25505   12.25529    2.50864
      H1     8.77267   11.84344    1.81785
       H    18.27128    6.94419    0.75856
       O    18.18077    7.59473   -0.02018
      H1    18.50607    7.08599   -0.72219

