150
frame 9 | Written by MDAnalysis XYZWriter (release 2.4.3)
       H    -6.59910   -8.21602    4.30605
       O    -6.33513   -7.63418    5.07476
      H1    -7.18691   -7.51902    5.53439
       H    -2.72760   -8.42761   -0.43350
       O    -3.25703   -8.99144    0.24013
      H1    -3.04642   -8.50703    1.07551
       H    -7.74641   -7.59124    9.57648
       O    -8.68375   -7.73950    9.61388
      H1    -8.94238   -8.60494    9.90676
       H    -6.67485   -4.29993    5.84976
       O    -7.57006   -3.90023    5.71530
      H1    -7.41151   -3.07405    5.25683
       H    -9.61234   -2.27103    2.08423
       O    -8.73077   -1.93231    2.27885
      H1    -8.83270   -0.98554    2.57188
       H    -0.58018   -6.05466    5.54155
       O    -0.30024   -6.73087    6.14266
      H1    -0.92322   -7.45683    6.08059
       H    -6.84282   -0.54847    6.80603
       O    -6.40062   -0.06340    6.12605
      H1    -5.56355    0.21898    6.60809
       H    -9.78001   -7.51010    2.08418
       O   -10.02639   -8.39437    2.41987
      H1   -10.46259   -8.93638    1.74197
       H    -3.23989   -4.53777   11.74451
       O    -3.07347   -4.05289   10.93731
      H1    -3.68436   -4.22724   10.21210
       H   -10.21534   -5.32614    8.27350
       O    -9.63933   -4.65202    7.92645
      H1    -9.28956   -4.98876    7.10917
       H    -6.87627   -4.43574   11.41365
       O    -6.70577   -4.54803   12.40055
      H1    -6.59807   -3.72321   12.78737
       H    -4.44546  -10.70871    4.13934
       O    -4.18045   -9.92350    3.55936
      H1    -3.29907  -10.15609    3.25331
       H    -0.87563   -2.66130    7.88682
       O    -1.58818   -2.13120    7.54641
      H1    -1.15610   -1.42974    7.02129
       H    -7.73357   -4.32795    8.84665
       O    -7.10717   -3.89041    9.46924
      H1    -6.23701   -4.22942    9.17590
       H    -3.31625   -7.70238   10.83097
       O    -2.51129   -7.24395   10.35189
      H1    -2.62139   -6.28645   10.26548
       H    -5.15203   -6.92504    3.96151
       O    -4.26605   -6.49231    3.77118
      H1    -4.45146   -5.99374    2.96762
       H   -10.68911   -3.57795    7.34934
       O   -11.36760   -2.92580    6.96845
      H1   -11.10205   -2.67251    6.06934
       H    -8.38946   -7.09335    0.41480
       O    -8.66537   -6.50915    1.11782
      H1    -7.90108   -6.25150    1.71398
       H    -4.29328    1.11760    1.59020
       O    -4.44818    0.50915    2.26433
      H1    -5.11561   -0.08752    1.91973
       H    -6.51924   -0.84366    4.19321
       O    -6.58353   -1.76457    3.93840
      H1    -7.25447   -1.81366    3.21752
       H    -5.52860   -7.80517    9.66926
       O    -6.00909   -7.28349    8.96521
      H1    -5.69892   -7.72819    8.12490
       H    -9.21777  -10.01043    5.08819
       O    -9.52041   -9.09806    5.09571
      H1    -9.62684   -8.78940    4.11653
       H    -2.25487   -8.97776    5.19120
       O    -2.05953   -8.89952    6.14905
      H1    -1.81593   -9.85804    6.41173
       H    -4.61549   -1.31369   -0.70919
       O    -4.78450   -2.12432   -0.24046
      H1    -5.76418   -2.09876   -0.13979
       H    -2.03563   -2.43110   10.28325
       O    -1.51239   -1.62501   10.24769
      H1    -1.58340   -1.40845    9.29042
       H    -3.83383   -5.42779   -1.09201
       O    -4.76208   -5.69132   -0.93765
      H1    -5.33815   -4.97408   -1.28378
       H    -5.70739   -1.14785    9.69227
       O    -4.73872   -1.26763    9.62638
      H1    -4.43874   -1.45418   10.49456
       H   -10.88947   -7.09065    6.30852
       O   -11.70160   -6.50194    6.29671
      H1   -12.38405   -7.17441    6.20148
       H    -0.03641   -9.17823    9.72456
       O    -0.51657   -8.90970    8.92391
      H1    -1.10809   -8.24819    9.29842
       H    -3.85900   -9.06169    6.50672
       O    -4.79169   -9.12360    6.76931
      H1    -5.37138   -8.66575    6.14421
       H    -4.20607   -0.33713    8.28005
       O    -3.95577    0.21079    7.50653
      H1    -3.56739    0.96835    7.94808
       H    -4.56794   -4.78358    7.84146
       O    -4.71709   -4.94476    8.80261
      H1    -5.23718   -5.77461    8.92293
       H    -3.08492   -1.98004    6.03445
       O    -3.83961   -2.30720    5.46543
      H1    -4.47754   -1.59474    5.30850
       H    -6.51646   -5.19140    2.81115
       O    -7.32991   -5.41503    3.21649
      H1    -7.40458   -4.84511    3.97060
       H     0.54480   -8.52186    5.55628
       O     0.85379   -9.21401    4.97464
      H1     1.30112   -9.80140    5.58598
       H    -5.48849   -9.14829   11.65565
       O    -5.15925   -8.29706   11.32278
      H1    -5.39191   -7.62799   11.94741
       H    -0.01462   -3.97485    4.23717
       O    -0.96249   -4.27993    4.37977
      H1    -1.39863   -3.75707    5.04170
       H    -1.53382   -7.22444    2.95430
       O    -2.11074   -7.97779    3.20988
      H1    -2.96337   -7.51092    3.25139
       H    -8.73105   -1.78262    7.94774
       O    -7.86174   -1.47572    8.15006
      H1    -7.39719   -2.37110    8.22199
       H     0.21761   -5.63714    7.60236
       O     0.42511   -4.86845    8.09789
      H1     0.75469   -5.06773    8.94763
       H    -1.87364   -2.51195    2.08839
       O    -1.03090   -2.19629    1.71379
      H1    -0.71736   -3.03596    1.32893
       H    -4.73964   -3.88927    5.79927
       O    -5.12333   -4.74653    6.04361
      H1    -5.03890   -5.44280    5.36786
       H    -5.12914  -12.28635    5.64394
       O    -5.63405  -11.92217    4.88878
      H1    -5.81480  -12.69351    4.28080
       H    -7.72902   -4.85425   -1.92414
       O    -7.42719   -4.55317   -1.06223
      H1    -7.84641   -5.07384   -0.38350
       H    -5.46047   -9.31451    1.87085
       O    -6.30703   -8.88596    2.09155
      H1    -6.47642   -8.33032    1.35681
       H    -4.13130   -2.45664    3.16295
       O    -3.78635   -2.81875    2.41643
      H1    -4.31999   -2.49509    1.68285
       H    -8.97885   -7.51654    7.87478
       O    -8.82542   -7.26834    6.93346
      H1    -9.15527   -7.99999    6.45881
       H    -2.92147  -11.38519    8.15829
       O    -3.84792  -11.41287    8.28503
      H1    -4.26645  -10.59344    7.98334
       H    -0.73622   -5.49259    3.19585
       O    -0.28241   -6.02332    2.47316
      H1     0.55561   -6.33680    2.83945
       H    -4.73023   -5.28044    0.65607
       O    -4.87537   -5.17682    1.63570
      H1    -4.36556   -4.35786    1.91837

