150
frame 8 | Written by MDAnalysis XYZWriter (release 2.4.3)
       H     7.43931    4.21364    3.85454
       O     7.31893    3.24225    3.90104
      H1     7.31965    2.94659    4.81076
       H    14.26925    4.15987    1.94365
       O    14.67415    4.87747    1.39982
      H1    15.28673    4.38038    0.89215
       H     7.70135   10.97117   -1.69117
       O     6.78579   10.75873   -1.85726
      H1     6.60523   11.05103   -2.74943
       H    13.30004    8.96872    2.43758
       O    13.03078    8.17230    2.02588
      H1    13.84523    8.02523    1.46655
       H     8.45946    9.25215    4.01228
       O     9.00768    8.90763    3.23996
      H1     8.54922    9.27801    2.50633
       H    10.51555    8.00959   -2.83370
       O    11.16612    8.52291   -2.32405
      H1    10.67446    8.74214   -1.51293
       H    10.21934    4.18200   -2.13080
       O    10.53966    5.06403   -2.26210
      H1    11.34519    5.15089   -1.70099
       H    13.19704    4.75487    5.01166
       O    13.45017    3.81138    5.20540
      H1    14.27675    3.88404    5.74447
       H     5.38407   12.45330    0.21573
       O     5.30526   11.48024    0.15214
      H1     5.80265   11.24487   -0.68806
       H    12.20250    3.17002    6.17923
       O    11.33230    3.04639    6.67755
      H1    11.12761    2.06015    6.60836
       H     9.49221    7.73555    6.02043
       O     8.98043    6.92206    6.29860
      H1     9.39237    6.18572    5.82331
       H     6.74530    2.88769    0.59127
       O     6.48148    3.56289   -0.06305
      H1     5.49738    3.72910   -0.00487
       H     6.99673    9.80001    0.36402
       O     7.75603    9.44357    0.84796
      H1     8.07352    8.70716    0.29118
       H    12.37621    7.50796    6.85118
       O    12.80357    8.18124    6.26085
      H1    11.99796    8.59383    5.85388
       H    14.45666    3.09135    3.82279
       O    14.90308    2.57014    3.09573
      H1    14.51603    1.70928    3.06775
       H    12.07237   11.58403   -2.38876
       O    12.62234   10.82977   -2.61946
      H1    11.98077   10.13663   -2.74388
       H    11.35384    5.53610    4.37855
       O    10.49995    5.14549    4.67593
      H1    10.77455    4.42723    5.33810
       H     7.89705    6.53134    4.23597
       O     7.26811    5.97016    3.69799
      H1     7.36026    6.26793    2.80567
       H     8.00556    7.59195    7.71103
       O     7.50928    8.04857    8.39740
      H1     7.26300    8.88952    8.03460
       H    10.25916   10.06156    5.68043
       O    10.69926    9.35457    5.23846
      H1    10.21020    9.27189    4.41235
       H     6.30371    8.06838    1.01598
       O     5.50870    7.59292    0.67013
      H1     4.78306    7.82141    1.30814
       H     8.20546    7.94180   -1.62796
       O     8.67328    7.71848   -0.80469
      H1     8.22211    6.99307   -0.32663
       H     8.03852    1.06813    1.47479
       O     7.20163    1.31834    1.87414
      H1     7.42794    2.09358    2.45655
       H    10.62767    1.77362   -1.61076
       O     9.87996    2.34742   -1.28989
      H1     9.00118    1.99535   -1.50828
       H    10.55853   13.67917    4.91055
       O    10.66509   12.76379    4.76082
      H1    11.41086   12.53775    4.17188
       H     3.58090    8.70708    3.47976
       O     3.08109    8.72581    2.65271
      H1     2.66074    9.57532    2.74125
       H    11.67002    4.08707    1.07991
       O    11.68392    3.90274    2.02661
      H1    11.03159    4.44225    2.46313
       H    13.27271    7.05625    3.45693
       O    13.11247    6.51855    4.25656
      H1    12.98083    7.16067    4.96974
       H     6.70548   10.59112    4.29306
       O     6.96967    9.91095    4.93355
      H1     6.36177    9.21484    4.88330
       H     9.53240   11.21496   -2.31632
       O     9.16479   11.59429   -1.49319
      H1     9.90489   11.69830   -0.84821
       H    14.42125    8.94627    6.29249
       O    15.02376    9.70411    6.36171
      H1    15.81923    9.26348    6.04473
       H    11.19321    6.46504    8.65021
       O    11.69372    5.90376    8.05916
      H1    11.06945    5.27354    7.71622
       H    10.26640   11.44802    7.49811
       O     9.70277   11.24389    6.73680
      H1     9.99138   11.90095    6.02965
       H    16.04815    5.18748    3.13091
       O    16.75159    5.44015    3.68654
      H1    17.24809    4.65461    4.02308
       H     7.98960   11.21303    7.50149
       O     7.16518   11.06770    8.01473
      H1     7.39769   11.31560    8.95932
       H     3.66312    5.13707    0.34538
       O     4.31475    5.16578   -0.35748
      H1     4.73684    6.01951   -0.16549
       H     6.32322    8.64842   -2.59799
       O     6.86350    7.95011   -3.05605
      H1     6.98596    8.15547   -3.99674
       H     9.98987    7.44562    2.72257
       O    10.41520    6.74546    2.16356
      H1    11.34839    7.03280    2.04274
       H    12.07746   12.25021    0.93656
       O    11.37355   12.38857    0.29208
      H1    11.75024   13.14989   -0.20173
       H    15.69777    7.34435    0.03665
       O    14.77543    7.29706   -0.27463
      H1    14.66949    6.77032   -1.09949
       H    13.52440   10.07797   -0.94263
       O    14.39490    9.98820   -0.51806
      H1    14.61962    9.04900   -0.61909
       H     7.55393   12.15449    2.43897
       O     6.68113   11.71272    2.59106
      H1     6.47470   11.60620    1.61613
       H    11.09896    0.80396    3.60564
       O    11.81495    1.25131    4.12764
      H1    11.98958    2.09275    3.70854
       H     4.55998    7.38089    5.14288
       O     5.34042    7.82529    4.81720
      H1     5.98861    7.07502    4.83060
       H    14.83862   10.10906    3.63002
       O    13.85329   10.19430    3.59524
      H1    13.55290   10.25748    4.49701
       H    13.12160   13.52124    3.12955
       O    12.69923   12.69054    2.95177
      H1    13.18717   11.94135    3.32544
       H    13.50611    4.39592   -1.10317
       O    12.86229    5.00054   -0.81946
      H1    13.16884    5.39073    0.02375
       H     9.66908   12.64596    3.29732
       O     9.31761   12.89886    2.41717
      H1     9.86065   12.37836    1.76848
       H     7.89112    5.14241    0.58696
       O     8.13538    5.97780    1.01804
      H1     9.07860    5.89853    1.28075
       H     9.68722    6.13789   -3.42671
       O     9.40272    6.92973   -3.88367
      H1     8.59653    7.19922   -3.45027

