150
frame 0 | Written by MDAnalysis XYZWriter (release 2.4.3)
       H    -6.39475   -7.70460  -11.97379
       O    -6.68642   -8.05831  -11.12658
      H1    -6.01781   -7.62975  -10.56123
       H   -12.43099   -8.68346   -2.75631
       O   -12.45553   -9.52972   -3.19713
      H1   -11.52603   -9.81482   -3.10544
       H    -5.82770   -8.77254   -4.62252
       O    -6.40039   -8.92994   -3.86203
      H1    -7.09675   -8.28107   -4.01823
       H   -10.09984   -3.94593   -4.63857
       O   -10.75867   -3.78271   -3.91121
      H1   -10.52497   -4.50323   -3.29590
       H    -2.25503   -7.59221   -3.76745
       O    -2.95923   -6.97811   -3.91979
      H1    -3.58482   -7.04614   -3.15304
       H   -10.02838   -8.08833   -9.65902
       O   -10.51556   -7.58836   -9.02924
      H1   -11.13341   -7.20074   -9.59457
       H   -12.20045   -4.11743   -8.72764
       O   -12.06172   -3.21411   -9.07545
      H1   -12.30805   -2.63532   -8.31374
       H    -6.40916   -6.27229   -3.45447
       O    -5.68217   -6.16272   -2.74738
      H1    -5.42556   -5.24910   -3.01291
       H    -8.52325  -11.70047   -2.81101
       O    -7.72796  -12.08563   -2.43922
      H1    -7.56650  -11.36286   -1.80252
       H   -12.73065  -12.44941   -9.13823
       O   -12.67803  -13.09493   -9.87179
      H1   -12.08657  -13.74059   -9.53131
       H   -13.92158   -4.80031   -7.64239
       O   -14.27409   -4.50443   -6.82065
      H1   -14.73537   -3.70672   -7.18246
       H   -11.14443  -13.68551   -2.73861
       O   -11.38967  -13.80439   -3.66772
      H1   -10.75253  -14.55751   -3.86885
       H   -10.06114   -6.62788   -7.38228
       O    -9.64366   -6.15619   -6.64514
      H1    -9.28094   -6.78007   -5.97937
       H    -7.20978   -7.09755   -1.86735
       O    -8.03560   -7.40062   -1.40546
      H1    -7.92749   -6.83028   -0.64555
       H   -13.07155  -10.42508   -1.08775
       O   -13.32684  -10.72887   -0.20441
      H1   -13.23429  -11.68771   -0.26928
       H    -9.83626   -9.09971   -7.95752
       O   -10.00286   -9.92075   -7.51694
      H1    -9.43425  -10.54184   -7.90472
       H   -12.45467   -6.85523   -5.23254
       O   -12.03237   -7.71356   -5.31383
      H1   -12.43997   -8.30801   -4.69750
       H    -6.92869  -14.30832   -8.46093
       O    -7.90190  -14.26638   -8.75714
      H1    -8.12105  -13.28152   -8.59197
       H    -6.51183  -12.15843   -4.51785
       O    -5.97473  -11.41651   -4.88099
      H1    -6.22557  -10.69385   -4.30400
       H    -9.23233   -2.32109   -3.71838
       O    -8.97139   -1.69074   -4.44429
      H1    -8.61222   -1.01770   -3.89007
       H    -8.93448  -14.91926   -7.34036
       O    -9.68189  -15.11531   -6.75062
      H1    -9.81229  -14.26726   -6.26966
       H   -15.44037  -10.32834   -9.62780
       O   -15.68871   -9.74338   -8.90177
      H1   -14.87234   -9.32368   -8.67760
       H   -12.77593  -10.54816   -7.42916
       O   -12.44502  -10.55087   -8.33720
      H1   -11.52548  -10.43745   -8.19305
       H    -5.90973  -11.31232  -10.48998
       O    -5.80028  -10.47220   -9.98519
      H1    -6.48426   -9.87798  -10.51426
       H    -6.91651  -11.04734   -8.22146
       O    -7.66928  -11.58034   -7.96000
      H1    -7.66323  -11.46144   -7.00212
       H    -8.84610   -9.79403   -2.06901
       O    -9.66605   -9.80067   -2.55102
      H1    -9.39259   -9.78906   -3.50108
       H   -10.36475  -12.52659   -5.07681
       O   -10.15637  -12.36682   -6.00323
      H1   -10.95152  -11.96139   -6.33179
       H    -1.80269   -8.84254   -7.15781
       O    -2.53567   -9.45804   -7.33283
      H1    -3.29885   -8.89296   -7.38368
       H    -4.39105   -7.60615   -6.05129
       O    -5.03649   -8.30117   -6.19319
      H1    -5.85217   -7.88711   -5.87463
       H   -10.47019   -8.22962   -5.14487
       O    -9.55908   -8.58698   -5.18984
      H1    -9.60820   -9.26445   -5.92542
       H    -8.05291   -4.86648   -9.40771
       O    -7.73305   -5.13064   -8.49455
      H1    -8.59476   -5.52275   -8.19627
       H   -10.84655   -6.53466   -2.65087
       O    -9.89240   -6.22436   -2.80356
      H1    -9.36848   -6.80746   -2.21069
       H   -10.55171  -13.73650   -0.09883
       O   -10.51322  -13.33941   -0.98749
      H1    -9.58105  -13.18587   -1.12998
       H   -12.56270   -2.73645   -6.16899
       O   -12.76666   -2.00076   -6.75082
      H1   -11.88419   -1.55510   -6.63991
       H    -5.97657   -6.00182   -8.95437
       O    -5.18649   -6.44973   -9.28634
      H1    -4.48337   -6.28815   -8.60881
       H   -11.87982   -8.17758   -0.46317
       O   -11.06514   -8.43836   -0.00106
      H1   -10.77585   -9.16314   -0.58478
       H    -7.44201   -8.92484   -0.84043
       O    -7.52398   -9.87946   -0.79817
      H1    -6.97098  -10.14944   -0.08046
       H    -9.54962  -10.40921  -10.13841
       O    -9.25361   -9.51108  -10.57559
      H1    -8.40035   -9.80139  -10.89572
       H   -10.84339  -12.49605   -9.96586
       O   -10.06478  -11.98146   -9.84334
      H1    -9.58611  -12.09263  -10.67813
       H   -13.70518   -4.77460   -4.91676
       O   -13.27594   -4.84610   -3.98113
      H1   -12.55894   -4.18332   -3.95922
       H    -4.32599  -11.00086   -4.84000
       O    -3.37302  -10.70722   -4.75159
      H1    -3.32753  -10.11229   -5.50787
       H   -13.34598   -8.20599   -7.06738
       O   -13.53772   -8.18938   -8.01446
      H1   -12.95517   -8.93618   -8.24380
       H   -12.98553   -6.62987   -2.84874
       O   -12.84611   -7.09062   -2.01877
      H1   -12.76564   -6.32722   -1.42818
       H    -4.68844   -9.38802   -2.28774
       O    -3.76086   -9.65511   -2.23463
      H1    -3.65869  -10.01828   -3.13276
       H   -15.65415  -11.57778   -3.32657
       O   -15.38216  -10.82610   -2.77512
      H1   -14.40578  -10.82011   -2.86292
       H   -14.50768  -10.80004   -6.30844
       O   -13.66446  -10.61033   -5.84372
      H1   -14.06020   -9.93117   -5.26135
       H    -8.46513   -3.16348   -5.35970
       O    -7.91741   -3.89239   -5.56268
      H1    -8.28627   -4.09855   -6.46906
       H    -8.65260   -6.53484   -4.12751
       O    -7.75792   -6.52691   -4.52041
      H1    -7.75584   -5.66218   -4.96079
       H   -12.89318   -5.98571  -10.03601
       O   -12.99121   -5.75382   -9.13767
      H1   -13.17910   -6.59968   -8.68187
       H   -15.15308   -9.13738   -3.57640
       O   -15.03901   -8.45120   -4.25476
      H1   -15.84001   -8.41747   -4.76150

