150
frame 2 | Written by MDAnalysis XYZWriter (release 2.4.3)
       H   -15.22506   12.14813    1.67056
       O   -15.98535   12.50688    2.22353
      H1   -16.11318   13.39791    1.91837
       H   -17.76639   11.42098  -11.38403
       O   -18.03967   10.49613  -11.40656
      H1   -18.57302   10.33769  -10.58428
       H   -17.40358   11.78895   -0.96196
       O   -16.60126   11.51649   -1.34005
      H1   -16.58953   12.03389   -2.11638
       H   -12.36454    7.77442   -4.73457
       O   -11.57065    8.29065   -4.72655
      H1   -11.20824    8.28277   -3.86068
       H   -17.49047    9.69458   -6.45780
       O   -17.68116    9.80969   -5.49475
      H1   -17.74751    8.91684   -5.11830
       H   -13.23284    5.89807   -2.47793
       O   -13.22330    6.32137   -3.34980
      H1   -13.45203    7.26583   -3.16151
       H   -15.45374   15.09249  -13.03842
       O   -16.13189   15.38249  -12.36177
      H1   -16.38411   14.53617  -11.91198
       H   -14.68570    8.89789   -2.02106
       O   -14.22033    8.67753   -2.87387
      H1   -14.39233    9.33632   -3.47132
       H   -13.44582   16.90263   -0.41374
       O   -14.18623   16.28803   -0.25140
      H1   -14.75782   16.42908   -1.02780
       H   -18.95502   16.65526   -4.51072
       O   -18.70843   17.31842   -5.21158
      H1   -19.36761   17.96901   -4.96984
       H   -14.21239   12.12441   -5.99325
       O   -14.21798   12.79496   -6.69769
      H1   -13.33991   12.77957   -7.11154
       H   -12.95760   10.16898   -6.86759
       O   -12.98561    9.78291   -7.71204
      H1   -13.66423   10.27898   -8.17344
       H   -13.77543   16.74657   -4.73656
       O   -13.59328   17.58034   -4.27362
      H1   -13.89899   17.40248   -3.35942
       H   -15.39708   18.97111   -1.33951
       O   -15.64309   18.26124   -1.91117
      H1   -15.91252   18.68990   -2.76345
       H   -15.53372   15.25015    0.59475
       O   -16.35834   15.09616    1.07204
      H1   -17.01235   15.16831    0.40596
       H   -18.62149   17.81465    0.10849
       O   -18.34917   17.72545   -0.84941
      H1   -17.38547   17.69048   -0.79947
       H   -13.65408   12.21073    0.20814
       O   -13.81201   11.54889    0.83812
      H1   -14.38385   10.96423    0.33702
       H   -14.97098   13.58457   -3.16800
       O   -14.30837   13.00688   -2.87351
      H1   -13.90241   13.32252   -2.05448
       H   -15.98590    5.14545   -4.57752
       O   -15.99869    5.85628   -3.93529
      H1   -15.06391    6.08702   -3.62147
       H   -17.07803    7.25206   -3.89272
       O   -17.91243    7.79765   -3.77795
      H1   -17.82044    8.16080   -2.87956
       H   -14.42821    7.06056   -9.18648
       O   -15.30863    7.40132   -8.90637
      H1   -15.92883    6.86040   -9.45228
       H   -15.34736   11.41072   -3.97578
       O   -15.14702   10.77025   -4.72446
      H1   -16.02524   10.39353   -5.04770
       H   -17.79442   13.78609  -11.52825
       O   -17.15479   13.13684  -11.29360
      H1   -17.03244   13.30302  -10.24649
       H   -13.36216   15.04747  -10.05846
       O   -14.18968   15.05732   -9.59445
      H1   -14.81264   15.55620  -10.17965
       H   -17.94242    6.97470   -7.32420
       O   -17.11981    6.97067   -6.83941
      H1   -16.44448    6.99088   -7.52263
       H   -11.43956   12.57510   -4.66719
       O   -11.71146   13.23805   -4.04044
      H1   -12.65935   13.19384   -3.90430
       H   -14.73648    8.58840    0.21452
       O   -15.10494    9.08771   -0.49327
      H1   -16.08544    9.04632   -0.54558
       H   -18.44452    5.45509   -0.79590
       O   -17.49984    5.47180   -1.09973
      H1   -17.48719    5.74107   -1.99946
       H   -19.11886    8.34197  -11.62817
       O   -18.87373    7.60189  -11.06697
      H1   -19.69891    7.11399  -10.95252
       H   -17.58198   11.04956    2.39320
       O   -18.39749   10.56820    2.53386
      H1   -18.07763    9.65569    2.68920
       H   -16.18266   15.16433   -4.00596
       O   -16.34958   14.93415   -3.13232
      H1   -17.01749   14.15833   -3.19422
       H   -18.34429   12.38324   -3.99048
       O   -18.06920   12.95569   -3.24522
      H1   -18.75528   12.83996   -2.57252
       H   -16.80821    5.25330  -10.71157
       O   -17.16289    5.79699  -10.00117
      H1   -17.64863    6.51162  -10.57526
       H   -15.28368   16.25961   -6.22170
       O   -15.26358   15.60714   -5.53293
      H1   -14.71895   14.87612   -5.90191
       H   -18.65368   14.73672   -6.49910
       O   -18.56294   13.83515   -6.66806
      H1   -17.96432   13.76674   -7.39133
       H   -16.80641   18.11879   -4.92881
       O   -16.28251   18.80727   -4.52800
      H1   -15.31495   18.65050   -4.64392
       H   -19.15130   17.54253   -8.48159
       O   -19.59844   16.85319   -7.92577
      H1   -19.40993   17.12848   -6.98819
       H   -19.28774   19.03628   -9.94606
       O   -18.41873   18.86078   -9.48283
      H1   -18.41012   19.62338   -8.85631
       H   -14.39662   18.31636   -7.93913
       O   -13.98903   17.43583   -7.71432
      H1   -14.03780   16.94043   -8.57474
       H   -12.11994   13.54235   -0.41363
       O   -13.01518   13.81979   -0.67052
      H1   -13.17267   14.73359   -0.40278
       H   -15.90011   10.45747   -8.33345
       O   -16.11516   10.97355   -7.55351
      H1   -15.31649   11.37628   -7.27746
       H   -18.24344   19.38698   -3.33764
       O   -18.76772   19.74545   -2.63155
      H1   -18.71025   19.08091   -1.93118
       H   -17.75461    5.34624   -5.86482
       O   -17.81673    4.35785   -5.87477
      H1   -18.72560    4.09396   -6.20336
       H   -11.11112   11.08570   -6.11472
       O   -11.86263   10.87977   -5.54598
      H1   -11.67198   10.00816   -5.07410
       H   -18.76293   15.99492   -0.90466
       O   -19.15064   15.14967   -0.64288
      H1   -19.62091   15.39337    0.13611
       H   -18.21866    8.22053   -0.35830
       O   -17.79051    8.88750   -0.89788
      H1   -18.00474    9.69243   -0.52449
       H   -18.83194   11.11581   -5.59223
       O   -19.56068   11.69191   -5.29268
      H1   -19.35465   12.50768   -5.75754
       H   -13.98900    8.56753   -6.68548
       O   -13.95656    7.75485   -6.09819
      H1   -14.88119    7.66429   -5.83647
       H   -15.64003    8.96516  -10.05383
       O   -15.54572    9.93437  -10.21217
      H1   -16.35218   10.27602  -10.65115
       H   -15.81075   13.84346   -8.46076
       O   -16.59743   13.30687   -8.68179
      H1   -16.47935   12.45003   -8.28864

