150
frame 8 | Written by MDAnalysis XYZWriter (release 2.4.3)
       H     4.44517   12.33019   18.87569
       O     4.04441   12.77820   18.10894
      H1     4.66486   12.75704   17.36740
       H     8.47344    8.96217   11.31619
       O     8.24329    8.08619   11.03543
      H1     8.03018    8.20919   10.11597
       H     8.39355   18.78377   14.10170
       O     8.65309   18.08062   13.46545
      H1     8.60962   17.26687   14.02141
       H     5.42105   12.88482   14.85885
       O     5.93550   12.43518   15.57636
      H1     6.00067   11.53080   15.19348
       H     9.26123    8.55062   16.36766
       O     9.13155    7.65491   16.69531
      H1     8.69149    7.70796   17.51295
       H     3.52111   14.61644   13.67330
       O     3.72511   13.66759   13.55447
      H1     4.14131   13.51574   12.67665
       H     6.93028   17.17169    8.33099
       O     7.01491   16.22593    8.57915
      H1     6.59679   15.76045    7.85204
       H    12.49560   13.13735   17.40832
       O    12.91821   13.63786   18.09821
      H1    13.03344   12.93121   18.79305
       H     7.63445   11.86543   18.50084
       O     7.64227   10.93741   18.85394
      H1     8.57375   10.68006   19.17054
       H    10.93682    8.93176   11.18517
       O    11.33578    9.79039   11.42255
      H1    11.40414   10.27005   10.59772
       H    12.38284   11.54444    8.92760
       O    11.40271   11.58620    9.11806
      H1    11.27267   12.46730    9.41560
       H    15.02644   10.17022    9.79986
       O    15.41149    9.67954   10.55224
      H1    15.89747    8.96200   10.19057
       H     6.73572   17.66275   12.91389
       O     6.18070   16.89619   12.96159
      H1     6.11645   16.57088   12.02531
       H    10.04763    6.20521   14.44744
       O    10.57924    5.41718   14.67599
      H1    10.47748    4.89524   13.90535
       H     7.35946   15.98477   13.91148
       O     8.02532   15.80798   14.55377
      H1     8.29574   14.85621   14.48445
       H    14.08659    9.50455   11.81854
       O    13.60033    9.30486   12.68476
      H1    12.70932    9.24645   12.33319
       H    10.56695   17.62650   11.75748
       O    10.83485   16.96033   11.14021
      H1    11.84046   17.05269   11.02139
       H    10.27800   17.86240    9.18030
       O    10.27930   18.61224    8.64221
      H1     9.37306   18.84898    8.60954
       H    11.35074   14.17926   15.40096
       O    11.53089   13.27733   15.72055
      H1    12.03715   12.83379   15.04869
       H     8.53100    7.02625   15.31527
       O     8.10676    6.87110   14.45778
      H1     7.67452    5.98863   14.40384
       H     4.78885    6.98724   13.53254
       O     5.11700    7.01290   12.63754
      H1     6.05002    7.26973   12.73464
       H     8.00556    7.59195    7.71103
       O     7.50928    8.04857    8.39740
      H1     7.26300    8.88952    8.03460
       H    10.25916   10.06156    5.68043
       O    10.69926    9.35457    5.23846
      H1    10.21020    9.27189    4.41235
       H     9.54094   13.03486   15.27523
       O     8.72351   13.29476   14.88905
      H1     8.00819   12.91321   15.40779
       H     5.57422   13.76869   10.61934
       O     5.30017   12.84268   10.84163
      H1     4.46711   12.74354   10.31845
       H    14.16613   11.66809   15.22147
       O    13.48162   11.41152   14.57159
      H1    13.80052   10.67137   14.02971
       H     8.71587   15.47452    6.32500
       O     8.90570   15.55028    5.41147
      H1     8.10329   15.39057    4.93154
       H    11.08122    6.76658   10.52178
       O    10.80316    7.55842   10.05120
      H1     9.83954    7.51458   10.11414
       H     8.82705   13.67815   18.08495
       O     7.91074   13.50488   17.81996
      H1     7.37692   14.26984   18.00207
       H     6.33496   11.56732   10.55212
       O     6.94343   10.84643   10.57236
      H1     7.71301   11.22188   10.98935
       H    14.90881   12.04608    8.90644
       O    14.22036   11.35620    8.78858
      H1    14.48003   11.08519    7.84629
       H     9.06618   12.48400   12.99143
       O     9.24230   12.00422   12.20891
      H1     9.92363   11.40996   12.35783
       H     5.47949   12.68087    5.72258
       O     5.43914   12.73069    6.69010
      H1     6.20428   12.09320    6.88204
       H    11.19321    6.46504    8.65021
       O    11.69372    5.90376    8.05916
      H1    11.06945    5.27354    7.71622
       H    10.26640   11.44802    7.49811
       O     9.70277   11.24389    6.73680
      H1     9.99138   11.90095    6.02965
       H    15.26032   15.54829   12.99937
       O    14.30026   15.39741   12.99439
      H1    14.14506   14.49436   12.67624
       H     7.52113   16.49982   16.28459
       O     7.38328   17.32849   16.75309
      H1     6.58893   17.12533   17.28133
       H     7.98960   11.21303    7.50149
       O     7.16518   11.06770    8.01473
      H1     7.39769   11.31560    8.95932
       H     6.10645   15.93699    9.90728
       O     5.44598   15.62817   10.59329
      H1     4.59736   15.84621   10.31743
       H     2.46011    8.53473   12.16806
       O     2.90347    9.37616   11.99261
      H1     3.73133    9.21966   12.42660
       H    10.71686   14.72307   11.00611
       O    10.76742   13.77192   10.86296
      H1    10.03463   13.24718   11.23800
       H    13.80155   16.54039   11.73265
       O    13.52522   17.25290   11.15214
      H1    14.15373   17.28420   10.43699
       H    13.90578   15.54492   15.04267
       O    14.01196   15.94169   15.91605
      H1    13.37943   15.64136   16.54203
       H    12.11045    6.26234   14.45137
       O    12.98453    6.63283   14.35194
      H1    13.01315    7.56003   14.22219
       H     5.70504    9.85386   13.59730
       O     5.31088   10.33745   12.84119
      H1     6.04849   10.53709   12.22710
       H    12.26452   13.37181   11.63208
       O    13.11940   13.06589   12.00502
      H1    12.84753   12.55902   12.79235
       H     2.67192   10.77773   13.14671
       O     2.30620   11.38337   13.78334
      H1     2.88895   12.17557   13.67293
       H     1.87368   11.65644    9.80690
       O     2.81060   11.58923    9.83586
      H1     3.12609   10.91756   10.43139
       H    10.37799   16.36432   15.10268
       O    11.15878   15.74403   14.92746
      H1    11.84827   16.40426   14.72099
       H     6.90290    8.34968   14.75415
       O     6.42907    9.10748   15.09329
      H1     5.97566    8.73765   15.88462

