150
frame 0 | Written by MDAnalysis XYZWriter (release 2.4.3)
       H     6.51710   13.27345   13.18577
       O     6.24050   12.61813   13.82809
      H1     7.11426   12.22297   14.00660
       H     3.38950   11.99039   18.79610
       O     2.89033   12.26731   19.52429
      H1     3.07528   13.22059   19.66684
       H     0.89763   15.44152   17.33916
       O     1.72232   15.49558   17.86625
      H1     1.31107   15.32161   18.76215
       H     2.79336   17.59827   15.39325
       O     3.61688   18.11520   15.35022
      H1     3.58891   18.42582   14.43259
       H     0.21800   10.53150   14.08619
       O    -0.03594   11.12445   13.32462
      H1     0.64367   11.01650   12.68795
       H    -2.94060   10.62744   12.52779
       O    -2.26842    9.86946   12.38968
      H1    -1.46243   10.38308   12.61634
       H     2.42900    9.63162   13.75483
       O     3.16504   10.13609   13.39699
      H1     3.34536   10.80387   14.03839
       H     3.71172    9.74069   17.41824
       O     4.17656   10.56957   17.48771
      H1     3.59338   11.14668   16.98175
       H     2.85710   13.19841   13.43937
       O     3.01722   14.10282   13.14265
      H1     3.11230   14.06110   12.16617
       H    -3.27740   17.47463   11.06877
       O    -3.73766   17.93614   11.83167
      H1    -3.08279   18.64919   12.00383
       H    -0.12356   12.05045    8.30511
       O    -0.70556   11.93038    9.10796
      H1     0.04532   11.63632    9.59393
       H    -0.65550   19.27648   19.41138
       O    -0.64206   18.68687   18.66198
      H1     0.16061   18.25782   18.81584
       H    -6.41143   15.41590   14.09642
       O    -6.40940   14.83412   14.92682
      H1    -5.51170   15.12091   15.33766
       H    -1.03596   15.14646   15.95428
       O    -0.09958   15.20004   15.77383
      H1    -0.15717   14.65532   14.94102
       H     3.21475   19.63656   12.95309
       O     4.07603   19.28378   13.02993
      H1     4.10213   18.59285   12.40903
       H     0.52198   16.88614   14.90012
       O     1.13730   17.31123   14.24001
      H1     0.66539   17.35040   13.42311
       H    -5.86025   16.21872   18.42757
       O    -6.00430   15.91857   17.54232
      H1    -6.45154   16.68808   17.10455
       H     1.18827   10.97154   16.86735
       O     0.90374   10.20228   16.33278
      H1     1.63825    9.58246   16.54791
       H    -2.21256   13.82632   18.42768
       O    -1.49739   14.00843   17.82187
      H1    -0.83791   13.23798   17.86545
       H     6.22114   15.40557   15.06459
       O     7.17073   15.30930   15.10027
      H1     7.40753   16.19887   14.82518
       H    -3.26931   15.36073   15.88331
       O    -3.71866   15.76478   15.15253
      H1    -3.59307   16.70676   15.44495
       H     0.71266   15.80905   11.44895
       O     0.18630   16.59027   11.81697
      H1    -0.52819   16.05996   12.21529
       H     1.99217   17.18072   18.30104
       O     2.05915   18.03091   18.82940
      H1     2.86229   18.35402   18.40280
       H    -3.60893   12.45747   11.53490
       O    -4.13620   11.86920   12.08113
      H1    -4.18597   12.21958   13.01425
       H    -4.07164   12.77621   15.86822
       O    -3.76947   12.20244   15.09360
      H1    -3.44124   11.36788   15.40857
       H    -1.88718   13.05478    9.92378
       O    -2.49700   13.44510   10.58011
      H1    -2.48326   14.37994   10.27042
       H    -2.86971   16.74310    9.18819
       O    -2.50846   16.27889    9.97873
      H1    -1.58685   16.49722    9.87230
       H     6.62096   18.57862   15.28514
       O     6.88415   17.98774   14.52494
      H1     6.09910   17.85618   14.04820
       H     5.31192   19.23203    9.45163
       O     5.63349   18.42265    8.98669
      H1     6.59713   18.33063    9.37954
       H     1.73348   13.18648   10.43245
       O     1.73446   14.13152   10.42617
      H1     1.32925   14.37924    9.53692
       H    -5.00205   14.35128   17.43063
       O    -4.27390   13.66252   17.35319
      H1    -4.63255   12.93149   17.87486
       H     0.58500   18.51724    9.34282
       O    -0.08091   17.79515    9.39516
      H1     0.06256   17.64050   10.36525
       H     4.10576   14.47241   17.57014
       O     4.81332   13.96020   17.95069
      H1     5.57818   14.38644   17.52333
       H     5.71821   19.06261   18.82490
       O     6.60166   19.13656   19.34316
      H1     6.81860   18.30296   19.71202
       H    -1.95191   13.90994   12.81978
       O    -1.68588   14.77316   13.16319
      H1    -2.54623   15.07564   13.49098
       H     0.29982   16.09631    8.50045
       O     0.42935   15.19024    8.17858
      H1     1.17475   15.35405    7.52003
       H    -7.48867   18.40473   16.42764
       O    -6.97089   18.03926   15.72115
      H1    -6.22247   18.66577   15.65589
       H     4.46503   14.15944    9.31174
       O     4.22728   14.38372   10.24841
      H1     3.29217   14.36362   10.13733
       H    -6.78760   16.97020   14.04510
       O    -7.11559   16.75562   13.13937
      H1    -8.02212   16.46638   13.30777
       H     2.38342   12.63570   16.14753
       O     3.11401   12.38306   15.61604
      H1     3.70413   13.16805   15.61996
       H     1.32833   12.95335   18.23295
       O     0.82577   12.74014   17.40199
      H1     0.66128   13.63473   16.97927
       H    -2.36484    9.54762   14.34783
       O    -2.22803    9.58828   15.32047
      H1    -1.31402    9.73759   15.37554
       H     6.04328   14.50618   11.29954
       O     6.65324   14.92922   11.87830
      H1     7.56511   14.65226   11.60318
       H     4.64775   16.62174   11.29448
       O     4.47047   16.85699   12.21133
      H1     4.53451   15.94123   12.52186
       H     3.73244   15.09566   14.54885
       O     4.21900   15.46513   15.29845
      H1     4.07502   16.43575   15.12863
       H    -5.89018   17.55968    9.49475
       O    -5.43142   18.38696    9.73163
      H1    -5.02796   18.14544   10.62545
       H     2.47854   10.25051   10.29713
       O     1.99684   11.08568   10.45924
      H1     2.19362   11.43457    9.59874
       H    -1.94365   17.28020   18.55912
       O    -2.43779   16.60580   18.06312
      H1    -2.01195   15.74214   18.11495
       H    -2.46838   17.89523   16.78479
       O    -2.69557   18.58102   16.11327
      H1    -1.91261   19.19953   16.20580
       H     7.54963   14.72196   16.75928
       O     7.35670   14.48137   17.69513
      H1     7.53433   13.55058   17.60793

