150
frame 8 | Written by MDAnalysis XYZWriter (release 2.4.3)
       H   -14.48741  -13.72599   -0.06060
       O   -14.84314  -13.45808   -0.91278
      H1   -15.81749  -13.45729   -0.80906
       H   -15.96795   -6.92648   -1.06192
       O   -15.56485   -6.08312   -0.76938
      H1   -14.63181   -6.06182   -1.12025
       H   -15.23882  -11.29280   -1.42562
       O   -15.02332  -10.35107   -1.43026
      H1   -14.60957  -10.30489   -0.54964
       H   -19.07393  -12.92390    2.54875
       O   -19.61795  -12.15263    2.47558
      H1   -19.27978  -11.61409    3.16910
       H   -17.76019  -15.56520   -7.27383
       O   -17.18727  -15.07137   -6.63275
      H1   -16.46981  -15.61749   -6.37135
       H   -17.59357  -15.17658   -4.07450
       O   -18.34370  -14.94071   -3.52837
      H1   -18.86301  -15.70850   -3.27671
       H   -17.61465  -14.88043    2.90700
       O   -17.73533  -14.09010    2.37833
      H1   -16.97109  -13.57830    2.64411
       H   -10.70700  -12.47550   -2.23105
       O    -9.97104  -11.94260   -1.79263
      H1   -10.40397  -11.15662   -1.37743
       H   -15.80152  -19.14528    0.44586
       O   -15.57044  -18.22689    0.80886
      H1   -15.73143  -18.30328    1.75023
       H   -18.74801   -7.85781   -1.29284
       O   -19.37756   -7.06668   -1.38754
      H1   -19.02684   -6.37747   -0.81262
       H   -16.36027   -9.47280   -1.37054
       O   -17.13932   -8.86122   -1.31044
      H1   -17.68214   -9.14522   -0.55854
       H   -16.11127  -17.88651    4.07314
       O   -15.48850  -18.24643    3.38947
      H1   -15.22669  -19.13351    3.66900
       H   -18.95651  -17.64389   -7.23990
       O   -18.35521  -18.17328   -6.68143
      H1   -18.62915  -17.87128   -5.81312
       H   -18.16871  -13.48005    5.99743
       O   -17.94280  -12.58924    5.67051
      H1   -17.13018  -12.31611    6.00830
       H   -12.30403  -10.92640    3.54963
       O   -11.96996  -11.11665    2.67674
      H1   -11.37425  -11.89550    2.85565
       H   -14.13436  -15.66640    2.16476
       O   -14.85512  -15.48420    1.51211
      H1   -15.68876  -15.77188    1.84158
       H   -19.76085   -9.35837    3.69184
       O   -19.12259   -9.81565    4.23749
      H1   -19.54122  -10.08228    5.05273
       H   -14.90176   -8.83767   -4.31407
       O   -14.46670   -8.10556   -3.88832
      H1   -14.39017   -7.48229   -4.59064
       H   -17.68355  -14.14487    0.47029
       O   -17.46170  -14.18390   -0.50352
      H1   -18.09350  -13.52926   -0.84187
       H   -15.92887  -10.53218   -5.63041
       O   -15.74379  -10.53802   -4.66815
      H1   -16.43791   -9.99064   -4.20159
       H   -18.71945   -9.58671    2.00196
       O   -19.07115   -9.00640    1.28507
      H1   -19.90450   -9.43307    0.98653
       H   -17.92857  -13.18749   -3.14564
       O   -17.70983  -12.23928   -3.08940
      H1   -18.58140  -11.80978   -3.00984
       H   -14.82554  -10.04137    1.82972
       O   -14.44682  -10.90303    1.54441
      H1   -13.57930  -10.89891    1.97992
       H   -12.64700   -9.61741   -3.81918
       O   -12.26308  -10.53882   -3.72826
      H1   -13.00576  -11.13250   -3.80494
       H   -17.42396  -15.85371   -0.34685
       O   -17.64038  -16.75288   -0.13973
      H1   -16.81484  -17.19861    0.13351
       H   -17.60844  -13.27790   -6.14702
       O   -17.83409  -12.37393   -6.01471
      H1   -17.70837  -11.97467   -5.14919
       H   -14.98242  -12.15397   -4.10470
       O   -14.30155  -12.73700   -3.62848
      H1   -14.57308  -12.73582   -2.69908
       H   -15.30649  -12.00687    2.79869
       O   -15.54622  -12.72571    3.41247
      H1   -16.00913  -12.20302    4.11073
       H   -15.56380  -18.89154   -3.73427
       O   -14.84195  -19.44960   -3.44651
      H1   -14.66496  -20.09561   -4.20224
       H   -19.36758   -9.58254   -3.60112
       O   -19.46253   -9.04497   -4.38439
      H1   -19.65397   -8.12893   -4.17406
       H   -15.05604  -15.93248    6.65280
       O   -15.62227  -15.26295    6.14331
      H1   -15.97346  -14.81335    6.87327
       H   -15.01143   -8.07257    1.16150
       O   -15.65131   -8.45255    1.75434
      H1   -16.24540   -7.72338    1.85878
       H   -18.00308  -17.82163   -1.33899
       O   -17.95247  -18.60678   -1.87527
      H1   -17.33195  -19.19851   -1.43842
       H   -13.59248   -7.36723   -2.23763
       O   -13.22903   -6.60726   -1.88634
      H1   -12.87030   -6.10698   -2.67685
       H   -17.96111  -17.56004    5.08931
       O   -17.47072  -16.86745    4.62896
      H1   -16.98489  -16.29206    5.25319
       H   -19.82887  -10.91204   -8.11956
       O   -19.15804  -11.56173   -8.30621
      H1   -18.63475  -11.60734   -7.49889
       H   -18.85259   -9.04892   -5.97050
       O   -18.26456   -8.91246   -6.72147
      H1   -17.83876   -8.10635   -6.54088
       H   -17.64873   -5.48989    1.51202
       O   -16.82519   -5.94373    1.70515
      H1   -16.39300   -5.92247    0.78821
       H   -15.99036  -10.40728    6.59745
       O   -15.48273  -11.15436    6.30497
      H1   -14.73284  -10.73439    5.82843
       H   -13.11721  -18.28221   -2.98684
       O   -12.37075  -17.79384   -3.38440
      H1   -12.68557  -17.14689   -3.98914
       H   -14.00958  -13.47386    4.15738
       O   -13.46392  -14.01252    4.74760
      H1   -14.13504  -14.50623    5.22099
       H   -12.27686  -16.22603   -0.87444
       O   -11.79263  -15.78583   -1.56126
      H1   -11.83635  -16.49660   -2.20143
       H   -13.80249  -16.96274    3.54541
       O   -13.02297  -16.40704    3.46509
      H1   -12.98173  -15.76648    4.15571
       H   -15.49845  -14.23140   -3.90040
       O   -15.48750  -15.16821   -3.82742
      H1   -15.14459  -15.25747   -2.91023
       H   -10.85658   -9.04758   -1.59264
       O   -11.47997   -9.61665   -1.14346
      H1   -12.04912   -9.97812   -1.79692
       H   -16.70878  -11.10268   -7.10873
       O   -15.81995  -10.73948   -7.21199
      H1   -16.01972   -9.78336   -7.33082
       H   -12.39074  -13.13814   -3.35243
       O   -11.59061  -13.62624   -3.13337
      H1   -11.87653  -14.31348   -2.51018
       H   -12.41167  -17.28321    1.57823
       O   -12.42639  -17.36029    0.59233
      H1   -13.32385  -17.41766    0.44476
       H   -14.19087  -15.70080   -4.71265
       O   -13.34492  -15.94544   -5.16169
      H1   -12.90263  -15.18801   -5.42449
       H   -12.89238   -7.70539   -0.07797
       O   -12.82506   -7.56536    0.86379
      H1   -11.90396   -7.82316    1.07835

