150
frame 9 | Written by MDAnalysis XYZWriter (release 2.4.3)
       H    17.48812    4.71738    6.11123
       O    17.18439    3.88565    5.68701
      H1    16.55573    3.57038    6.28910
       H    17.65393    6.73543    6.40303
       O    18.39208    6.13205    6.66186
      H1    19.07418    6.46007    6.06038
       H    15.16119    6.41807   -6.74303
       O    14.32973    6.81282   -7.10484
      H1    14.06081    7.38087   -6.37956
       H    15.51639   13.08392    4.86927
       O    16.34230   12.77203    4.42827
      H1    16.54104   11.92426    4.89205
       H    17.68935   13.89729   -5.04960
       O    16.84651   14.11123   -4.64444
      H1    16.38281   13.23766   -4.65224
       H    15.21627    2.96338    2.59367
       O    15.42013    3.65385    1.93298
      H1    16.32752    3.45217    1.62729
       H    18.69097    5.96334    2.69578
       O    19.45636    6.58272    2.52467
      H1    19.77380    6.43460    1.63375
       H    15.90793   11.45613   -3.99481
       O    15.28099   12.01488   -4.48881
      H1    14.43719   11.96082   -4.01991
       H    14.26626    8.45385    2.31073
       O    14.13892    7.47988    2.22765
      H1    14.39655    7.31878    1.35859
       H    17.83139   11.32932   -2.87352
       O    17.28090   10.63594   -3.22493
      H1    16.61086   10.49613   -2.55949
       H    14.16228    3.53859   -5.39986
       O    13.87072    3.46777   -4.51420
      H1    13.31581    4.31234   -4.42093
       H    17.06269   12.66573    2.79127
       O    17.06159   12.84834    1.86375
      H1    16.19047   12.73148    1.51808
       H    11.31818    8.90199   -2.09684
       O    11.79256    9.32540   -1.36073
      H1    11.43339    8.86013   -0.58093
       H    11.52297    2.66351   -1.62931
       O    11.87414    3.52054   -1.94447
      H1    12.51516    3.84073   -1.30982
       H    17.48290    6.64384   -5.92944
       O    17.26929    6.53171   -4.99994
      H1    17.74376    5.77516   -4.60709
       H    17.27060    2.49378   -0.41120
       O    17.44150    3.14125    0.32451
      H1    18.42133    3.41916    0.25153
       H    16.74175   -0.82050   -3.84648
       O    16.78140   -0.04327   -3.27050
      H1    15.92506    0.04160   -2.77201
       H    14.94165    0.54990   -0.87509
       O    14.59805    0.68194   -1.77155
      H1    14.99101    1.54623   -2.06058
       H    19.51144    9.56210    2.67478
       O    19.60722    9.80599    3.62431
      H1    19.75628    8.97176    4.05025
       H    14.32164    1.99890    4.38367
       O    14.71652    1.59113    3.58892
      H1    13.88259    1.27767    3.11259
       H    18.09095    9.97500    4.49617
       O    17.22171    9.98970    4.91162
      H1    16.89665    9.05997    4.81047
       H    18.15952   10.76488   -6.34806
       O    17.51817   11.34352   -6.70719
      H1    16.70979   11.20414   -6.22078
       H    18.67314    9.82374    0.44506
       O    19.29888    9.16068    0.90730
      H1    18.89428    8.25883    0.95040
       H    12.70496   12.59067   -1.73990
       O    12.85340   11.81710   -2.33697
      H1    12.40378   11.11234   -1.86323
       H    15.45308    7.02651    5.99626
       O    16.27697    7.31271    5.49912
      H1    16.06073    7.02384    4.61399
       H    12.21663    4.00332    0.98482
       O    11.44088    4.02896    1.56854
      H1    11.44955    4.96282    1.85837
       H    14.25702    5.11202    3.81272
       O    13.75077    5.39046    4.58604
      H1    13.50532    6.30903    4.39183
       H    16.54833    3.55261   -2.66077
       O    15.65805    3.31886   -2.41503
      H1    15.14068    3.45869   -3.24866
       H    18.87512   12.35531   -0.29971
       O    18.29796   11.63151   -0.04436
      H1    17.83864   12.00179    0.69456
       H    11.94002    5.02647   -3.45007
       O    12.10049    5.81612   -3.97338
      H1    12.92846    6.19682   -3.72591
       H    18.05013    3.26346   -4.38520
       O    18.36903    4.14464   -4.08130
      H1    19.13855    4.22980   -4.66480
       H    15.88472   -0.89296    0.60128
       O    16.15285   -0.01104    0.43679
      H1    15.83922    0.45821    1.20196
       H    16.65370    6.00100   -8.47369
       O    17.05471    6.52954   -7.79362
      H1    17.75846    6.99790   -8.17049
       H    13.70239    9.73055   -5.90770
       O    13.27691    9.01918   -5.37345
      H1    12.37041    9.22852   -5.36430
       H    16.44285    4.93796    2.86079
       O    17.27204    5.13331    3.29580
      H1    17.24213    4.63065    4.18462
       H    19.64239   -0.32843   -5.23796
       O    19.68345    0.28534   -4.47319
      H1    18.77842    0.37458   -4.11808
       H    17.20346    1.28505   -5.96553
       O    17.14997    1.90822   -5.31127
      H1    16.54050    1.50624   -4.69333
       H    18.58847    9.26569   -3.50221
       O    18.97240    8.49904   -3.97624
      H1    18.19694    7.96885   -4.24941
       H    10.77132    7.15835    2.63304
       O    11.51490    6.56135    2.61841
      H1    12.33800    7.00775    2.55237
       H    14.78423    3.81285   -8.00366
       O    15.09139    3.68476   -7.07526
      H1    15.63739    2.90106   -7.00648
       H    16.21993    7.46807   -0.59675
       O    15.31790    7.51272   -1.00772
      H1    15.32593    7.17248   -1.89587
       H    14.14144   10.43516   -1.95056
       O    15.04170   10.20813   -1.71392
      H1    14.98593    9.27447   -1.40152
       H    15.24934    6.86554   -4.14522
       O    14.44283    7.00219   -3.71267
      H1    14.11170    7.81512   -4.07849
       H    14.23116   12.96692    0.12115
       O    14.90671   12.27926    0.31888
      H1    15.23229   11.76542   -0.43469
       H    18.88814    8.86459   -8.88197
       O    19.18682    8.04845   -8.51312
      H1    19.54361    7.56596   -9.25870
       H    14.71736   10.97251    1.87183
       O    14.67140   10.30075    2.53803
      H1    15.53457   10.08253    2.89516
       H    14.39565    4.71473   -0.93740
       O    13.78913    4.57832   -0.20018
      H1    14.33316    4.35748    0.52964
       H    18.82606   12.57027   -6.13194
       O    19.21381   13.38014   -5.84404
      H1    19.52196   13.79854   -6.66162
       H    17.59548    5.84749   -0.44240
       O    17.79285    6.78163   -0.28744
      H1    18.50840    7.00278   -0.94637
       H    10.97650    7.19519   -3.30595
       O    10.55462    8.09315   -3.27037
      H1     9.69933    7.97170   -2.89149

