150
frame 10 | Written by MDAnalysis XYZWriter (release 2.4.3)
       H    -5.04630    3.40612   -3.77056
       O    -5.60236    2.65252   -3.65798
      H1    -5.78379    2.46342   -4.59715
       H    -3.79090   -7.25128   -0.60881
       O    -4.22787   -8.07008   -0.74990
      H1    -3.46057   -8.63640   -0.73562
       H    -4.78925   -3.00595   -5.50964
       O    -4.26360   -2.49886   -6.10123
      H1    -4.45345   -2.98122   -6.92599
       H    -4.14102   -0.59465   -6.08739
       O    -3.82826    0.25076   -6.31653
      H1    -3.02203    0.38570   -5.78997
       H    -6.44372   -4.63519    5.91773
       O    -7.19888   -4.36568    5.36890
      H1    -7.07896   -3.48504    5.00826
       H    -8.88433   -2.23187    2.01079
       O    -8.05553   -1.77625    1.95715
      H1    -8.16086   -0.92820    2.38770
       H    -3.93664   -2.00142   -1.99505
       O    -3.39581   -2.42535   -2.63609
      H1    -2.49255   -1.98119   -2.59738
       H   -10.82139   -8.72481    1.71402
       O    -9.91435   -8.67216    2.08467
      H1    -9.47910   -7.92994    1.61260
       H   -13.26678   -2.80190   -1.00010
       O   -12.55429   -2.21482   -0.92557
      H1   -11.99091   -2.50188   -0.12713
       H    -8.12117   -7.00255   -4.20378
       O    -7.28806   -6.55878   -4.43893
      H1    -7.38399   -6.21536   -5.35822
       H   -11.63788   -4.85252    3.40072
       O   -11.93587   -4.66158    4.29633
      H1   -11.63986   -5.42818    4.78552
       H   -10.64763    0.59738    2.93122
       O   -10.55564    1.33327    2.29725
      H1   -10.74532    0.86110    1.47088
       H   -13.61356   -1.68090    1.85143
       O   -13.51175   -2.61439    1.75788
      H1   -13.82625   -2.89107    2.58899
       H    -9.50892   -5.65428   -7.27358
       O    -8.80434   -5.20518   -6.79035
      H1    -8.07240   -5.35091   -7.40306
       H   -11.46218   -1.15688    4.17936
       O   -10.64751   -0.84627    3.76214
      H1   -10.17457   -0.48505    4.54925
       H    -8.02348   -7.32420    0.04125
       O    -8.61961   -6.68866    0.45612
      H1    -8.22430   -6.39754    1.32004
       H    -5.27989    2.11893    2.19323
       O    -5.40841    1.92914    3.11207
      H1    -6.22763    1.33733    3.14124
       H    -5.03464   -2.02786    4.00766
       O    -5.41444   -2.58106    3.29307
      H1    -6.28530   -2.21525    3.08194
       H   -13.15914   -0.51685   -3.86706
       O   -14.00592   -0.23770   -4.20765
      H1   -13.96322    0.69594   -4.33770
       H    -5.36402   -0.28329   -1.19387
       O    -5.51235   -1.18684   -0.99229
      H1    -6.50023   -1.32736   -1.01991
       H    -8.64374    3.75751   -3.69291
       O    -8.02413    3.75866   -2.94575
      H1    -7.25641    3.17530   -3.17018
       H   -10.10081    1.24260   -2.28908
       O   -10.74599    1.46188   -3.00698
      H1   -11.34497    2.16332   -2.71539
       H   -12.15131   -4.11980   -4.02465
       O   -12.21128   -4.36917   -3.04596
      H1   -11.65452   -3.74102   -2.55269
       H    -6.38799   -8.19551   -4.79357
       O    -5.88564   -8.98979   -4.94715
      H1    -6.42729   -9.71747   -4.75560
       H    -7.99206   -8.27760   -2.01335
       O    -7.30757   -8.11934   -1.37440
      H1    -6.46817   -7.98511   -1.81418
       H    -3.52899   -5.13776   -0.57684
       O    -4.09953   -5.29512    0.22700
      H1    -4.12298   -4.37447    0.51833
       H   -10.11557   -1.09338   -4.20839
       O    -9.54584   -0.83528   -4.99122
      H1    -9.52169   -1.61641   -5.53476
       H    -8.21825    0.67866    4.51569
       O    -8.10653    0.57535    3.51803
      H1    -8.86094    1.03518    3.10961
       H   -10.59864   -3.62922    1.23800
       O   -10.73313   -2.68589    1.11200
      H1   -11.39408   -2.48650    1.79954
       H   -11.85603   -6.25594    1.56596
       O   -10.99765   -5.93976    1.91905
      H1   -10.36085   -6.26293    1.28027
       H    -7.58516   -0.94599   -4.51505
       O    -6.70151   -0.72746   -4.78213
      H1    -6.49855   -1.49414   -5.31048
       H    -9.05162   -9.11025   -4.09963
       O    -9.34723   -8.33817   -3.56218
      H1   -10.15716   -7.97124   -3.99474
       H    -7.99885   -2.90779   -1.30810
       O    -7.98252   -1.94662   -0.96856
      H1    -8.18198   -2.17816   -0.03325
       H    -6.62488   -5.95286    2.93841
       O    -7.60473   -6.00534    2.91073
      H1    -8.01598   -5.50554    3.62286
       H    -9.19471   -3.69386   -6.99612
       O    -9.54727   -2.76969   -6.99246
      H1    -9.11081   -2.22585   -7.63985
       H   -12.55836    0.01489   -0.28676
       O   -12.85446    0.77705    0.19807
      H1   -12.45807    1.51268   -0.28055
       H    -4.95538   -6.51496   -5.09686
       O    -4.36939   -6.12799   -5.81583
      H1    -3.72173   -5.72691   -5.24487
       H    -1.09367   -4.76647   -1.07125
       O    -2.02189   -4.69867   -1.41806
      H1    -2.05319   -3.81126   -1.81444
       H   -13.07167   -7.42795   -2.03912
       O   -13.31345   -6.54602   -1.76567
      H1   -12.88003   -5.93798   -2.43467
       H   -11.30196   -0.10224   -3.20149
       O   -11.68927   -0.99897   -3.21731
      H1   -11.78685   -1.32658   -2.33867
       H    -2.10252   -2.68068    0.78567
       O    -1.21684   -2.42446    1.07506
      H1    -0.73589   -3.27785    1.19590
       H    -8.17312   -5.24617   -2.19876
       O    -7.86430   -4.78045   -1.36655
      H1    -8.27392   -5.20941   -0.60994
       H    -5.12260   -9.17275    1.96082
       O    -5.85984   -8.60074    1.74235
      H1    -5.72987   -8.28634    0.85766
       H    -3.98220   -2.27644    1.57385
       O    -4.01872   -2.50212    0.66693
      H1    -4.74026   -2.12561    0.18289
       H    -8.74127    0.79859   -5.68953
       O    -8.38950    1.61246   -6.11275
      H1    -7.43209    1.50388   -6.09603
       H    -4.99159    1.54409   -2.22308
       O    -4.64248    1.20955   -1.43606
      H1    -4.73947    1.91904   -0.75713
       H    -9.53325    3.01595   -0.13531
       O    -8.59826    3.08938   -0.27970
      H1    -8.52683    3.23101   -1.22821
       H    -8.61305   -0.08788   -0.91174
       O    -9.27182    0.60964   -0.87665
      H1    -8.86005    1.43815   -0.66418
       H    -6.01954   -4.08561   -3.44179
       O    -5.32712   -3.90390   -4.09238
      H1    -4.60637   -3.47111   -3.57974
       H    -4.47879   -5.41665    2.26044
       O    -4.74706   -5.12144    3.15039
      H1    -5.04597   -4.23971    3.00327

