150
frame 0 | Written by MDAnalysis XYZWriter (release 2.4.3)
       H    -2.99539    2.83032   -3.14153
       O    -3.86636    2.44209   -2.99600
      H1    -4.09026    2.78442   -2.14275
       H    -5.95997    5.73208   -5.51779
       O    -5.63044    4.98652   -6.07275
      H1    -5.93130    4.30471   -5.42528
       H    -1.45578    5.58836    0.57442
       O    -1.69741    4.67847    0.34367
      H1    -1.17863    4.02215    0.83890
       H    -7.50455    2.84031   -4.52712
       O    -6.53916    3.05216   -4.34209
      H1    -6.48387    2.85807   -3.38309
       H   -11.82773    4.71052   -4.70107
       O   -11.02806    5.05277   -5.17922
      H1   -10.83154    5.89777   -4.77427
       H    -4.97334    9.74574   -8.01034
       O    -5.86657    9.95594   -7.67621
      H1    -6.39304    9.49322   -8.34690
       H    -4.44125    0.67843   -5.52766
       O    -5.30650    0.80257   -5.10155
      H1    -5.43003    1.73512   -4.82796
       H     0.39929    7.66441   -3.75630
       O     0.49535    7.37677   -4.66973
      H1     0.09844    7.97448   -5.34227
       H   -10.99498    9.60724   -2.69510
       O   -10.20762    9.23983   -2.18714
      H1   -10.60561    8.46917   -1.69553
       H    -3.77048    9.94335    0.07813
       O    -3.54129    9.08338   -0.32193
      H1    -4.15102    8.87777   -1.09810
       H    -2.75949    7.17158   -6.52751
       O    -2.70447    8.11861   -6.78836
      H1    -2.94380    8.15154   -7.72939
       H    -3.20014    9.38367   -5.18621
       O    -3.56304    9.75719   -4.42840
      H1    -4.05014    9.08477   -3.88942
       H    -7.03769   12.83097   -4.60565
       O    -7.91353   13.21563   -4.73193
      H1    -8.24074   12.99467   -5.57706
       H    -9.08001   10.89252   -0.19276
       O   -10.06797   10.85452   -0.07805
      H1   -10.37624   10.13605   -0.66552
       H    -6.83195    5.65478    1.81681
       O    -6.92720    5.87543    0.86463
      H1    -7.57200    5.25436    0.49956
       H    -5.76393    4.88489   -3.27808
       O    -6.01730    5.37442   -2.46202
      H1    -5.47495    5.07695   -1.75168
       H    -3.42132    7.34576    0.97628
       O    -3.75075    6.62443    1.51238
      H1    -3.15632    6.71180    2.26957
       H    -0.49977    5.96280   -2.23598
       O    -0.33656    4.98821   -2.08448
      H1    -0.84382    4.82150   -1.23038
       H    -7.05117    8.96911    2.10127
       O    -6.34237    8.75522    1.39159
      H1    -6.50808    7.82854    1.18423
       H    -7.62412   13.53888    1.93407
       O    -6.87193   13.22178    1.37951
      H1    -7.27563   12.44149    0.90942
       H    -8.19154    3.29072   -7.80569
       O    -7.18540    3.43297   -7.72171
      H1    -6.98253    4.14647   -7.14678
       H    -4.49954    2.56776    0.44531
       O    -4.80595    1.71720    0.84064
      H1    -4.78787    1.00033    0.27413
       H    -4.37315    9.10139    2.62533
       O    -4.14268    9.62953    3.38598
      H1    -4.57396   10.49992    3.26191
       H     1.37027    4.49834   -6.38009
       O     1.49186    4.77604   -5.44912
      H1     0.96386    5.60101   -5.38317
       H    -2.40763    9.83560   -1.54079
       O    -1.99506   10.35738   -2.23145
      H1    -2.47142   10.18509   -3.04415
       H    -7.50745    3.02067    1.97871
       O    -7.33945    2.15837    1.49321
      H1    -6.37956    2.22367    1.27987
       H    -4.15783   11.51269   -4.67797
       O    -4.45042   12.42366   -4.67366
      H1    -4.63411   12.69398   -5.59965
       H    -3.57139    5.20299   -6.03175
       O    -2.69069    5.53849   -5.76235
      H1    -2.32856    4.78200   -5.26089
       H    -6.87583    1.18279   -2.38849
       O    -6.90628    1.97468   -1.87789
      H1    -6.81477    1.78425   -0.91447
       H    -6.78263   11.46203   -0.80858
       O    -7.40100   10.92358   -0.25147
      H1    -6.84379   10.15411    0.06983
       H    -0.98234    8.69441    3.51169
       O    -1.36238    9.26707    2.83025
      H1    -2.28553    9.24060    3.15922
       H    -0.26440    9.96237   -5.57871
       O    -0.34971    9.35872   -6.35496
      H1    -1.26370    9.04708   -6.43502
       H    -3.98276   11.98895    1.42534
       O    -3.91537   11.78972    0.48717
      H1    -3.21578   12.44767    0.32785
       H    -0.65925    8.05156    1.19383
       O    -0.37157    7.29642    0.65322
      H1    -0.50371    7.62260   -0.25307
       H    -5.38036   12.49395   -2.47709
       O    -5.71718   12.70919   -1.55731
      H1    -4.97674   12.46597   -0.95533
       H    -8.06625    4.45621   -2.43165
       O    -9.02457    4.74274   -2.56778
      H1    -9.53750    3.87104   -2.67666
       H    -5.46934   13.19670   -7.98060
       O    -5.18069   12.54315   -7.29928
      H1    -5.63165   11.72298   -7.58308
       H    -4.89547    5.10610    0.36158
       O    -4.53478    4.38845   -0.18131
      H1    -3.56911    4.51380   -0.24659
       H     0.42904   12.16392   -3.60358
       O     0.37581   11.33718   -4.06709
      H1     1.05979   10.74410   -3.68753
       H    -3.05223   13.41399   -4.06835
       O    -2.55911   14.20250   -4.18470
      H1    -1.98367   14.28870   -3.44200
       H    -2.26310    4.87640   -7.35375
       O    -2.40063    4.49289   -8.26017
      H1    -2.93287    3.70981   -8.04294
       H    -5.87413    8.38012   -2.31271
       O    -4.95333    8.19991   -2.55208
      H1    -4.88304    7.25398   -2.66671
       H    -4.86749    6.06118    2.79382
       O    -5.59816    5.78410    3.43386
      H1    -5.73278    6.55631    3.98499
       H   -11.40292    6.38243   -1.22111
       O   -10.83134    7.08431   -0.83296
      H1   -10.00204    6.60182   -0.44055
       H    -8.78892    6.43417   -3.43134
       O    -8.98278    7.25007   -4.00152
      H1    -9.40912    7.81806   -3.30921
       H    -0.23140    3.68526   -4.93331
       O    -1.12073    3.74995   -4.53453
      H1    -0.88441    4.21190   -3.67906
       H     0.60406    8.45976   -1.82003
       O    -0.21530    7.99397   -2.05386
      H1    -0.88254    8.63468   -2.28868
       H    -7.44275    7.75253   -4.75792
       O    -6.55670    7.48832   -5.09738
      H1    -6.44512    8.21619   -5.69881
       H    -2.88157   -0.50793   -2.84421
       O    -3.42799   -0.02948   -2.22094
      H1    -3.52816    0.89010   -2.64974
       H   -10.21669    4.51057    0.49630
       O    -9.41729    4.89970    0.00790
      H1    -9.48724    4.84382   -0.95439

