153
frame 4 | Written by MDAnalysis XYZWriter (release 2.4.3)
       H   -16.56083    4.65868    7.37765
       O   -16.40932    3.74403    7.69560
      H1   -15.93800    3.82718    8.55918
       H   -13.08986    0.91589    3.72894
       O   -13.84550    1.17109    3.16311
      H1   -14.54458    1.55782    3.75956
       H   -13.22764    3.90038   12.37842
       O   -12.87646    3.19905   11.84101
      H1   -12.51764    2.60819   12.50772
       H   -17.97573    2.96078    7.56199
       O   -18.76535    2.44111    7.40260
      H1   -19.48764    2.77519    7.91181
       H    -8.12674   -5.49321    7.38782
       O    -8.23347   -4.52577    7.35356
      H1    -7.41110   -4.15803    7.63063
       H    -9.58013   -2.73787    2.31516
       O    -8.72360   -2.33574    2.42783
      H1    -8.78816   -1.74862    3.19359
       H   -15.97525    5.32384   10.43342
       O   -15.26363    4.69795   10.29414
      H1   -15.48518    3.87925   10.74569
       H    -8.62825    3.63104    6.16404
       O    -8.02247    3.54997    5.40864
      H1    -7.34845    2.88875    5.65323
       H   -10.83774    4.50111    7.21357
       O   -10.21718    3.77072    7.32444
      H1    -9.62641    4.14953    8.02942
       H   -16.14528    3.04843    4.54125
       O   -15.60483    2.68337    5.22338
      H1   -16.13431    2.73875    6.00806
       H    -9.93320   -5.50822    3.04781
       O    -9.79396   -4.99009    3.87677
      H1    -8.83472   -5.06995    4.09409
       H   -10.77242   -4.84764    8.91201
       O   -10.58895   -5.54969    9.56773
      H1    -9.85140   -6.00018    9.14783
       H   -11.61274    0.40051    1.99531
       O   -11.24032    0.99547    1.30406
      H1   -10.45262    0.65491    0.92060
       H   -13.85958   -0.58884    2.79172
       O   -13.82251   -1.41053    2.27947
      H1   -14.30028   -2.12066    2.70810
       H   -14.06079   -2.99140    9.25261
       O   -14.79876   -3.61574    9.33905
      H1   -15.46610   -2.95069    9.57279
       H   -15.70588    1.51052   11.15825
       O   -16.33638    2.24982   11.20043
      H1   -17.11812    1.95113   10.77813
       H   -11.71003   -1.19909    3.97363
       O   -11.49235   -0.27020    3.99521
      H1   -10.53865   -0.22564    4.25578
       H    -8.87666    3.38258   10.84521
       O    -9.15925    2.77687   11.51592
      H1    -9.94388    2.25253   11.15959
       H   -16.13939   -1.28863   -0.02641
       O   -16.76140   -1.09256    0.64261
      H1   -16.26730   -1.21887    1.44789
       H   -18.39200    0.90989    8.54059
       O   -18.04367    0.51661    9.34358
      H1   -17.45676   -0.20415    8.96820
       H   -12.53949   -3.78204    4.57685
       O   -12.53939   -2.85798    4.91171
      H1   -13.46738   -2.52179    4.83377
       H    -9.41275   -4.53434   10.66691
       O    -8.83344   -4.27606   11.36793
      H1    -8.10793   -3.77361   10.95115
       H    -9.78967   -3.63163    6.65394
       O   -10.55929   -3.12156    6.83611
      H1   -11.00993   -2.98259    6.02020
       H   -13.47703    2.14867   10.30350
       O   -13.30581    1.49817    9.60132
      H1   -14.09957    0.93487    9.66453
       H   -14.42106   -4.49342    2.71635
       O   -15.15818   -4.06371    2.31909
      H1   -15.08442   -4.19694    1.36883
       H   -12.44304    6.57811    7.27800
       O   -11.70858    6.20829    6.69467
      H1   -12.15611    5.86360    5.89012
       H    -8.49762    2.59223    2.65449
       O    -8.23719    1.68185    2.65813
      H1    -7.32925    1.71672    2.26232
       H   -15.19960    3.95423    2.82595
       O   -16.02298    3.78656    2.35877
      H1   -15.97662    3.04057    1.71745
       H   -12.90055   -6.33918    3.88422
       O   -13.24724   -5.41795    4.00253
      H1   -13.49327   -5.39921    4.92358
       H   -17.42931   -1.83303    7.42021
       O   -16.75311   -2.00327    8.08001
      H1   -15.92253   -2.10463    7.62963
       H   -10.96769    2.03188    6.93927
       O   -11.62158    1.28347    6.97469
      H1   -12.18274    1.40172    7.73484
       H   -12.95507   -1.58274    7.85154
       O   -13.33462   -0.92070    7.23730
      H1   -12.70741   -0.23437    6.98968
       H   -14.49215   -0.93637   11.17642
       O   -15.11036   -0.35750   10.68447
      H1   -15.93583   -0.54543   11.17302
       H   -11.61257    4.26795    9.04984
       O   -11.44916    4.53931    9.93210
      H1   -11.89414    3.95142   10.53806
       H   -19.59583   -1.92286    6.43498
       O   -18.93227   -1.23485    6.57684
      H1   -18.41408   -1.22917    5.73314
       H   -11.63315   -6.26301    8.45820
       O   -12.08965   -6.79549    7.74663
      H1   -11.44710   -6.81905    7.04406
       H    -8.86526   -0.31327    5.41303
       O    -8.84110   -0.38637    4.47953
      H1    -8.49398    0.35881    3.97159
       H   -11.17444   -4.12378    2.28661
       O   -11.31369   -3.28187    1.85185
      H1   -12.00759   -2.85018    2.32797
       H   -13.77289   -2.90742   12.14997
       O   -13.40474   -2.03318   12.06532
      H1   -12.47970   -2.28712   11.81705
       H   -18.23580   -0.22278    4.00538
       O   -17.67550   -0.98583    4.31743
      H1   -17.92743   -1.78266    3.82939
       H   -13.97592    3.77564    5.73215
       O   -13.72094    4.68156    5.45169
      H1   -14.05279    5.18892    6.23468
       H   -18.61656   -3.86476    9.72095
       O   -17.91924   -4.38501    9.27012
      H1   -17.45696   -3.65942    8.78270
       H   -10.34787    0.06346    7.58574
       O    -9.66359   -0.63664    7.79795
      H1   -10.02545   -1.56842    7.82693
       H    -9.73752   -2.95241   11.67370
       O   -10.41191   -2.19993   11.53889
      H1    -9.95706   -1.36491   11.38517
       H   -11.92358    0.80373   10.53940
       O   -11.05455    0.80824   10.95985
      H1   -11.30114    0.42670   11.83782
       H    -8.43379   -0.55665    9.28140
       O    -7.60424   -0.65726    9.77264
      H1    -7.72546   -0.22690   10.69067
       H   -14.25392   -6.24472    6.73052
       O   -14.78116   -5.44102    6.46995
      H1   -14.66565   -4.70685    7.05623
       H   -16.18896   -1.79115    5.63756
       O   -15.32866   -2.20188    5.73117
      H1   -14.78589   -1.50001    6.16683
       H    -6.83668    0.80141    8.68127
       O    -6.25015    1.60068    8.58984
      H1    -5.61984    1.41302    9.31606
       H   -14.50408    7.06279    8.63491
       O   -14.01251    6.33775    8.17281
      H1   -14.11018    5.55227    8.78060
       H   -11.55624   -2.37077    9.66510
       O   -12.18544   -2.64093    9.02144
      H1   -11.72852   -2.97876    8.24006

