153
frame 9 | Written by MDAnalysis XYZWriter (release 2.4.3)
       H    17.23565   15.69308    2.78699
       O    17.47033   15.72255    1.84902
      H1    17.53022   14.76609    1.70598
       H    17.68935   13.89729   -5.04960
       O    16.84651   14.11123   -4.64444
      H1    16.38281   13.23766   -4.65224
       H    18.22338   16.37395   -7.22707
       O    18.95855   16.87370   -6.76952
      H1    18.98277   16.66467   -5.81671
       H    15.05966   15.52390    3.74749
       O    14.17144   15.20215    3.98203
      H1    13.79911   15.83148    4.63007
       H    15.90793   11.45613   -3.99481
       O    15.28099   12.01488   -4.48881
      H1    14.43719   11.96082   -4.01991
       H    18.79201   17.44990   -3.63498
       O    19.19034   16.57696   -3.85471
      H1    18.75110   15.90516   -3.28311
       H    16.85263   16.12348   -9.12208
       O    16.98125   15.34260   -8.56167
      H1    17.81539   15.01572   -8.96599
       H    10.24177   13.00419   -6.84523
       O    11.12650   12.78755   -7.25494
      H1    11.11808   13.21421   -8.10508
       H    16.63397   16.42838  -14.31130
       O    16.41914   17.15915  -13.73931
      H1    15.60047   17.55045  -14.16194
       H    17.83139   11.32932   -2.87352
       O    17.28090   10.63594   -3.22493
      H1    16.61086   10.49613   -2.55949
       H    13.22892   16.77183  -11.70838
       O    13.60478   16.72528  -10.80039
      H1    14.10170   15.94917  -10.71678
       H    17.06269   12.66573    2.79127
       O    17.06159   12.84834    1.86375
      H1    16.19047   12.73148    1.51808
       H    14.13185   17.97510   -0.69509
       O    14.80725   18.19455   -1.29747
      H1    14.61088   17.73222   -2.07309
       H    18.57100   19.93993    2.09092
       O    18.03150   19.47313    2.76194
      H1    17.49092   18.89008    2.21067
       H    17.75788   10.66157   -8.50693
       O    18.14166   10.43999   -9.32454
      H1    17.49266    9.85897   -9.84102
       H    11.17527   11.82086   -3.21018
       O    10.37615   11.47592   -3.56645
      H1     9.87250   12.09852   -4.18709
       H    11.32349   17.78338   -8.33964
       O    11.71218   18.26036   -9.10030
      H1    12.25684   17.62794   -9.53916
       H    13.38817   19.20700    3.72185
       O    14.17511   18.80534    3.29977
      H1    14.79981   19.56401    3.21400
       H    18.50812   18.93610  -11.70301
       O    17.70723   18.82477  -12.18002
      H1    17.75009   18.09604  -12.73117
       H    10.07574   19.27817   -4.09896
       O    10.58826   19.45813   -4.91655
      H1    11.46844   19.14453   -4.71191
       H    18.15952   10.76488   -6.34806
       O    17.51817   11.34352   -6.70719
      H1    16.70979   11.20414   -6.22078
       H    12.70496   12.59067   -1.73990
       O    12.85340   11.81710   -2.33697
      H1    12.40378   11.11234   -1.86323
       H    18.88766   19.94442   -5.95150
       O    18.18164   19.27545   -6.26185
      H1    18.60278   18.45574   -6.60125
       H    14.34851   12.07306   -6.83155
       O    13.70428   11.38278   -7.09847
      H1    12.79819   11.73424   -7.01620
       H    11.60249   14.78331   -9.95317
       O    10.82033   14.88832   -9.40041
      H1    11.20479   15.37727   -8.63832
       H    12.79901   17.42431    6.15521
       O    13.66530   17.25547    5.78896
      H1    13.64127   17.71219    4.95575
       H    13.12936   15.08198    2.37858
       O    12.49958   15.44715    1.73146
      H1    12.83298   16.33231    1.47475
       H    12.31668   14.28139    0.26574
       O    12.56544   13.87657   -0.57134
      H1    12.43061   14.68519   -1.19372
       H    18.69559   11.70499  -10.17597
       O    18.73366   12.42419  -10.84568
      H1    19.62794   12.48194  -11.22645
       H    16.70062   17.12287    1.03657
       O    16.42128   17.98016    0.74309
      H1    15.83335   17.75605   -0.02816
       H    17.18103   18.74198  -14.42366
       O    17.54086   19.31828  -15.09406
      H1    18.39288   19.66313  -14.76657
       H    18.87512   12.35531   -0.29971
       O    18.29796   11.63151   -0.04436
      H1    17.83864   12.00179    0.69456
       H    15.50477   18.77355    5.69945
       O    16.37387   18.52277    6.01168
      H1    16.81740   19.37216    5.82825
       H    15.50228   17.51135  -10.38743
       O    16.46405   17.44889  -10.17400
      H1    16.89248   17.92631  -10.89756
       H     9.97076   17.38346   -2.29574
       O     9.44545   18.17121   -2.39527
      H1     8.54357   18.12276   -2.11761
       H    11.00996   15.53961   -2.87891
       O    11.29249   15.93552   -2.03483
      H1    10.64121   15.62709   -1.38715
       H    12.49590   18.56046    0.79727
       O    13.15707   17.87003    0.85202
      H1    13.61564   18.07217    1.63771
       H    15.59231   14.26934   -6.05689
       O    15.32357   13.97909   -6.92388
      H1    16.00329   14.43391   -7.47492
       H    10.35000   14.41826   -5.24014
       O    10.91321   15.04748   -4.79236
      H1    10.86525   15.79071   -5.32163
       H    13.55295   18.65582   -5.89382
       O    13.15555   17.86975   -5.40585
      H1    12.86424   17.23226   -6.07734
       H    18.58847    9.26569   -3.50221
       O    18.97240    8.49904   -3.97624
      H1    18.19694    7.96885   -4.24941
       H    10.37644   18.19453   -6.25430
       O    10.14418   17.47338   -6.89478
      H1     9.14877   17.51193   -6.99662
       H    14.14144   10.43516   -1.95056
       O    15.04170   10.20813   -1.71392
      H1    14.98593    9.27447   -1.40152
       H    17.41474   15.74672    4.96507
       O    16.68603   16.27885    4.55773
      H1    16.66996   17.13640    5.01884
       H    14.23116   12.96692    0.12115
       O    14.90671   12.27926    0.31888
      H1    15.23229   11.76542   -0.43469
       H    17.83381   18.39380   -0.31834
       O    18.59949   18.53851   -0.90884
      H1    18.15329   18.70983   -1.76278
       H    16.97420   18.38954   -3.98434
       O    17.65616   18.89501   -3.53095
      H1    18.03964   19.50080   -4.19768
       H    17.62785   19.80543   -7.74632
       O    17.12435   20.02580   -8.57279
      H1    16.74468   19.22306   -8.97597
       H    14.89410   17.27934   -4.66854
       O    15.67683   17.09501   -4.17376
      H1    16.09612   16.35635   -4.60981
       H    18.82606   12.57027   -6.13194
       O    19.21381   13.38014   -5.84404
      H1    19.52196   13.79854   -6.66162
       H    13.61014   14.97681   -6.94536
       O    12.70747   15.32258   -6.98963
      H1    12.15776   14.57125   -6.77351

