153
frame 7 | Written by MDAnalysis XYZWriter (release 2.4.3)
       H     3.62646   -5.37751   -6.33359
       O     3.23838   -4.47882   -6.41579
      H1     3.22577   -4.45430   -7.37656
       H     6.38715   -5.74717  -13.33392
       O     7.06796   -6.14598  -12.74949
      H1     7.24211   -5.65549  -11.97129
       H     5.21026   -2.28738   -2.43355
       O     4.66374   -2.76986   -3.01929
      H1     4.87942   -3.73932   -2.96648
       H    -0.18350   -8.68974   -2.42280
       O     0.49680   -9.12718   -2.92981
      H1     0.24647   -9.16442   -3.81231
       H    -1.79674   -2.39698   -5.78103
       O    -2.45994   -2.11342   -5.16502
      H1    -1.97455   -1.93910   -4.34727
       H     1.21038   -7.41711   -3.48364
       O     1.21970   -6.51807   -3.83080
      H1     1.94400   -6.57743   -4.41400
       H     6.70921   -9.25332  -10.98206
       O     6.87678   -9.24334  -10.00357
      H1     7.47202   -8.57603   -9.71665
       H    -2.23914   -5.50128   -5.73574
       O    -2.81216   -5.45376   -6.47965
      H1    -2.45338   -4.66861   -6.88764
       H     3.56892   -4.82522  -10.93477
       O     3.07028   -5.22506  -11.69614
      H1     2.28615   -5.60182  -11.18664
       H     2.76967  -10.88719   -4.83014
       O     1.78578  -10.88282   -5.00454
      H1     1.37734  -11.46118   -4.36312
       H     0.04892   -5.51427   -6.14110
       O    -0.13238   -4.81594   -5.48707
      H1     0.51512   -4.91443   -4.80064
       H     0.27173   -4.68458  -10.48051
       O    -0.13838   -3.85695  -10.61859
      H1    -0.76040   -3.69156   -9.86617
       H    -0.76386   -6.33522  -10.14047
       O    -1.63388   -6.73131   -9.89017
      H1    -2.30627   -6.04260  -10.11521
       H     0.24933   -3.11564   -6.04601
       O     0.12792   -2.13138   -6.23365
      H1     0.85495   -1.91354   -6.88925
       H     8.01540   -9.26271   -2.92491
       O     8.79506   -9.80164   -2.79394
      H1     9.47717   -9.46286   -3.41480
       H     2.58533   -9.85028   -9.38249
       O     2.46860   -8.94678   -9.68156
      H1     3.27682   -8.47225   -9.39640
       H     0.92536   -6.97132  -10.94675
       O     0.95471   -6.22917  -10.33240
      H1     1.27201   -6.53962   -9.50034
       H     1.85413   -2.10855   -0.66988
       O     2.42903   -2.84007   -0.98652
      H1     2.39376   -2.58569   -1.90792
       H     1.96931   -4.41348   -1.38815
       O     1.94694   -5.37584   -1.46243
      H1     1.50998   -5.61914   -2.28645
       H     4.76086   -3.25499   -9.66582
       O     3.87003   -3.62894   -9.51536
      H1     3.26511   -2.93371   -9.20683
       H     2.78609   -2.68046   -4.05161
       O     1.91206   -2.44034   -3.82750
      H1     1.54277   -2.16358   -4.67412
       H     5.04201    0.34617   -8.94900
       O     5.45303    0.55183   -9.79010
      H1     4.76011    0.99849  -10.28309
       H     7.03930   -5.24659   -8.49438
       O     6.25729   -5.32155   -7.95855
      H1     5.82920   -4.49441   -8.05699
       H    -1.01767   -2.82786   -8.08227
       O    -1.69207   -3.33245   -8.51262
      H1    -2.52049   -2.80274   -8.30360
       H     5.13458  -11.38726   -5.19515
       O     4.64669  -12.19351   -5.26929
      H1     4.71480  -12.87779   -4.57322
       H     3.24443  -11.52566   -7.97415
       O     3.02276  -11.36555   -8.92687
      H1     2.16249  -11.80216   -9.02795
       H     8.34786   -7.22600   -5.66809
       O     9.22559   -7.64845   -5.80753
      H1     9.11942   -7.97485   -6.71030
       H     6.80752   -2.43770   -9.13653
       O     6.40349   -2.92848   -9.89488
      H1     6.57909   -2.33935  -10.67271
       H     4.33402   -8.08960   -5.56998
       O     3.56817   -7.44567   -5.58015
      H1     2.96458   -7.86358   -6.24378
       H     2.84746   -2.02107  -11.81559
       O     3.33617   -2.64180  -12.38923
      H1     3.00043   -3.53539  -12.22128
       H     6.67535   -2.70601   -5.08700
       O     7.58697   -2.92956   -4.77228
      H1     7.81585   -2.26732   -4.09848
       H     5.97180    0.82183   -4.94762
       O     5.14168    0.76732   -4.47228
      H1     5.35945    0.89214   -3.56010
       H     2.01866   -9.23183   -7.79984
       O     1.64964   -8.88362   -7.00952
      H1     1.53077   -9.63433   -6.45728
       H     9.27260   -8.01892   -8.85436
       O     8.49442   -7.48893   -8.82051
      H1     8.45199   -6.94994   -9.57348
       H     3.96178   -6.08631   -3.25273
       O     4.79570   -5.57968   -3.29580
      H1     5.29666   -5.89036   -4.05599
       H     9.50097   -4.08934   -3.61877
       O    10.43502   -4.34729   -3.57977
      H1    10.82800   -4.20175   -2.77650
       H     6.93377  -11.43758   -7.63727
       O     7.35869  -10.53816   -7.67407
      H1     7.24299  -10.09609   -8.56092
       H     7.55084   -0.84442   -7.21365
       O     7.66206   -1.71413   -7.59846
      H1     8.37363   -2.09182   -7.05047
       H     3.40308   -6.63749  -12.93573
       O     3.66373   -7.36068  -13.52582
      H1     4.11543   -7.92104  -12.94281
       H     3.93340   -8.38090   -0.52457
       O     3.92535   -7.45413   -0.35443
      H1     3.38942   -6.89368   -0.94080
       H     4.82778   -3.26621   -5.72646
       O     5.13497   -2.32837   -5.70396
      H1     4.90677   -1.99732   -4.78560
       H     4.09144   -4.07555   -0.48664
       O     4.79697   -4.19221    0.18216
      H1     5.12702   -5.03351    0.17344
       H     0.53515   -7.45892   -7.44483
       O     0.17612   -6.58932   -7.61244
      H1    -0.58835   -6.60870   -8.13634
       H     8.91728   -4.95126  -10.27137
       O     7.94776   -5.25195  -10.26143
      H1     7.38898   -4.45737  -10.14148
       H     6.38029   -9.81032   -6.42192
       O     5.69253   -9.69966   -5.76448
      H1     6.19950   -9.41806   -5.02471
       H     6.39300   -7.47346   -3.25833
       O     6.41299   -8.47189   -3.27799
      H1     5.70129   -8.76295   -2.73032
       H     4.85529   -6.57108   -8.93820
       O     4.67756   -7.43092   -9.37193
      H1     5.59644   -7.77574   -9.49221
       H     6.53939   -5.59970   -6.10943
       O     6.79803   -5.73356   -5.22331
      H1     7.30236   -4.90071   -5.10336
       H    -1.86276   -9.82311   -4.37418
       O    -1.47398   -9.46066   -5.20426
      H1    -2.27939   -9.08389   -5.62713
       H     4.18035   -0.55511   -6.56363
       O     3.91565    0.00978   -7.26035
      H1     3.68650    0.85591   -6.85332
       H     2.65014   -0.94292   -8.06501
       O     1.99712   -1.63894   -8.41154
      H1     1.79371   -1.28643   -9.32411

