153
frame 3 | Written by MDAnalysis XYZWriter (release 2.4.3)
       H    -4.97849   -4.29080  -11.11781
       O    -4.72100   -4.35821  -10.17498
      H1    -4.11140   -3.67648   -9.95219
       H    -8.00293   -8.81603  -17.45159
       O    -8.00155   -9.57333  -18.06486
      H1    -7.82601   -9.26290  -18.95928
       H    -9.67491  -11.72432  -18.13977
       O   -10.61901  -11.60808  -18.41532
      H1   -10.73069  -10.85335  -19.03451
       H    -9.02596   -4.55634  -16.33833
       O    -9.45735   -5.26599  -16.86849
      H1    -9.84623   -4.87015  -17.64974
       H    -5.04408  -11.84405  -16.02373
       O    -4.69917  -12.72075  -15.63925
      H1    -4.26222  -13.27605  -16.34086
       H    -6.38130  -10.92773  -10.52124
       O    -6.27352   -9.98259  -10.85490
      H1    -5.34371   -9.79941  -10.81131
       H    -9.12144   -0.09855  -16.67936
       O    -9.73659   -0.76461  -16.90239
      H1   -10.52911   -0.30375  -17.24972
       H    -3.62337   -1.99979  -17.15826
       O    -2.91916   -2.66934  -16.96313
      H1    -2.70562   -2.57015  -16.02812
       H    -8.76235   -9.72263  -12.88075
       O    -9.52259  -10.32090  -12.98747
      H1    -9.29583  -11.04546  -13.54399
       H    -2.05410  -11.28038  -17.29481
       O    -1.48139  -12.04000  -17.58192
      H1    -1.66466  -12.15343  -18.54823
       H   -11.04027   -3.47683  -19.50377
       O   -10.77807   -4.38645  -19.39001
      H1    -9.93411   -4.62696  -19.86141
       H    -6.35447   -4.48353   -9.09701
       O    -6.83232   -4.93377   -8.37548
      H1    -7.12347   -5.74028   -8.76894
       H    -5.87907   -9.21869  -14.64840
       O    -5.92744   -9.86195  -15.36055
      H1    -6.84635  -10.02250  -15.53215
       H   -10.55735   -7.57853  -18.88449
       O    -9.74903   -7.45012  -19.34395
      H1    -9.18314   -7.18293  -18.65393
       H    -8.10020  -12.37903  -14.55757
       O    -8.93726  -12.20516  -15.04283
      H1    -8.66992  -12.19589  -15.99811
       H    -1.94679   -2.55690  -13.92393
       O    -1.24506   -2.70659  -14.47561
      H1    -0.84387   -3.54902  -14.22721
       H    -3.79934   -8.95924  -12.23054
       O    -3.69090   -9.04403  -11.26659
      H1    -3.17967   -8.26092  -11.00743
       H   -11.14685   -6.55875  -14.77981
       O   -11.36346   -5.63793  -14.97583
      H1   -10.78851   -5.25459  -15.66080
       H    -8.45821   -1.08676  -18.85492
       O    -8.62435   -1.50119  -19.71525
      H1    -8.11756   -2.37311  -19.63857
       H   -11.67962   -7.86187   -9.31465
       O   -11.15883   -7.22322   -9.86993
      H1   -11.54990   -7.42767  -10.72564
       H   -12.39021   -9.28849  -17.31196
       O   -11.49613   -9.04488  -17.53531
      H1   -11.01504   -9.89029  -17.64998
       H    -5.70921  -11.81699  -13.85056
       O    -6.49877  -11.91748  -13.28905
      H1    -6.70570  -11.10171  -12.84613
       H    -7.47666   -2.84246  -11.31673
       O    -7.01084   -1.99855  -11.17539
      H1    -7.26999   -1.42388  -11.88734
       H    -7.08111   -8.30305  -12.19929
       O    -7.60405   -8.23617  -13.02775
      H1    -7.36785   -7.36565  -13.43055
       H    -7.72057   -8.05037  -10.13630
       O    -7.13296   -7.28888  -10.03104
      H1    -6.35672   -7.69059   -9.57715
       H   -10.94958   -3.39111  -12.63045
       O   -10.40147   -3.79904  -13.30430
      H1   -10.89299   -4.50923  -13.69140
       H    -9.38534   -2.50130  -15.94033
       O    -8.76897   -2.99275  -15.35183
      H1    -9.30611   -3.11105  -14.55052
       H    -3.58067   -5.82865  -16.78269
       O    -4.20124   -5.08494  -16.64687
      H1    -3.77616   -4.25608  -16.91327
       H    -4.96132   -1.76853  -18.69766
       O    -4.84859   -1.23253  -17.89758
      H1    -4.72630   -0.33625  -18.17492
       H    -7.21746   -6.70044  -17.62010
       O    -7.67849   -7.23479  -16.89850
      H1    -8.41300   -6.65670  -16.64528
       H    -4.04773   -9.52389  -17.05340
       O    -3.23103   -9.45803  -16.56423
      H1    -3.41080   -9.37478  -15.58689
       H    -1.24313   -7.75038  -14.67051
       O    -1.02565   -7.50304  -13.74736
      H1    -0.41323   -8.16561  -13.38027
       H    -3.54178   -7.97504  -13.97190
       O    -3.25632   -8.87227  -14.01061
      H1    -2.31187   -8.74984  -14.02965
       H    -5.14489  -11.69535  -18.41921
       O    -4.74903  -10.83049  -18.54020
      H1    -5.52080  -10.34747  -18.91402
       H   -13.96754   -4.78140  -16.54634
       O   -13.68104   -5.65714  -16.35133
      H1   -12.91759   -5.62717  -15.73020
       H    -4.37250   -5.86983   -9.06363
       O    -4.34185   -6.68919   -8.57689
      H1    -3.53930   -7.18630   -8.80186
       H   -10.43980  -11.50726  -11.93843
       O   -10.92054  -11.92478  -11.17992
      H1   -10.73754  -12.92707  -11.20072
       H   -13.10846   -8.40158  -11.79696
       O   -12.97576   -7.49001  -12.14755
      H1   -12.39692   -7.67864  -12.92804
       H    -2.64011  -10.59291  -11.38319
       O    -2.28797  -11.51785  -11.59382
      H1    -2.65819  -12.20025  -10.98097
       H    -1.54227   -5.22427  -19.09974
       O    -2.46287   -5.18859  -19.26953
      H1    -2.59007   -4.49629  -19.94014
       H    -3.15799   -5.77605  -11.00843
       O    -2.53246   -6.44691  -11.33534
      H1    -2.48556   -6.42515  -12.30232
       H    -3.22723   -5.72865  -14.64822
       O    -3.76644   -6.24165  -14.01518
      H1    -4.73099   -6.13991  -14.34272
       H   -13.07772   -5.87033  -17.99863
       O   -12.79858   -6.06861  -18.92945
      H1   -11.98659   -5.60154  -18.92262
       H    -9.05759   -4.51812  -12.30288
       O    -8.31315   -4.42647  -11.67550
      H1    -8.27586   -5.18400  -11.11955
       H    -6.27358   -3.09055  -15.01547
       O    -5.64670   -3.72204  -14.73379
      H1    -5.30027   -4.23372  -15.45465
       H    -5.42494   -5.74194  -18.25760
       O    -6.13506   -6.22662  -18.73101
      H1    -5.75325   -6.78568  -19.40054
       H    -6.52174   -5.41699  -14.61732
       O    -6.42530   -6.37331  -14.54406
      H1    -6.97785   -6.70624  -15.28167
       H    -2.96905  -12.19137  -14.53242
       O    -2.02529  -12.32303  -14.31832
      H1    -2.07140  -12.22439  -13.35483
       H    -7.42673  -12.58888  -18.10198
       O    -8.17018  -12.18303  -17.69870
      H1    -8.17901  -11.28427  -17.98027
       H    -2.40475   -7.91241  -16.43984
       O    -1.98054   -7.03002  -16.33686
      H1    -1.39799   -6.93926  -17.08575
       H   -10.78586   -8.42198  -15.63283
       O   -10.95127   -8.15798  -14.69320
      H1   -10.36165   -8.65688  -14.08171

