153
frame 7 | Written by MDAnalysis XYZWriter (release 2.4.3)
       H    -0.80622    8.80820    9.56634
       O    -1.58964    9.38477    9.35058
      H1    -2.24624    8.66808    9.32432
       H     8.09429    9.80660   10.84378
       O     8.54030    8.99113   10.55033
      H1     8.01074    8.82285    9.74622
       H     4.72393   11.91938   14.86016
       O     5.48724   11.57801   15.37529
      H1     5.91539   10.84233   14.92572
       H     3.32295   13.78906   14.50433
       O     3.51098   12.91348   14.24637
      H1     3.93733   13.00074   13.38460
       H     7.79844   15.83642    8.30931
       O     7.44446   14.96581    8.04328
      H1     6.80510   15.24916    7.37947
       H     2.95355    6.46554    6.73454
       O     3.35191    6.14131    5.93835
      H1     4.18697    5.70198    6.23941
       H    -3.46583   16.38091    8.09826
       O    -2.62364   16.32536    8.53206
      H1    -2.26170   15.38269    8.44265
       H     3.51976   17.24631   12.46573
       O     2.57351   17.43178   12.70439
      H1     2.05233   16.98003   12.02738
       H     6.76441   16.74554   12.51926
       O     5.87480   16.42832   12.45991
      H1     5.83092   16.09267   11.56532
       H     1.57106    9.37035    5.36951
       O     2.15034    9.45779    6.13466
      H1     2.15570   10.39132    6.34755
       H     2.49824   15.89765    6.44420
       O     3.11271   16.42791    6.95857
      H1     3.07149   17.32341    6.64256
       H     3.70357   14.57926    2.65020
       O     3.28621   15.16589    2.04921
      H1     3.37537   16.08935    2.42143
       H     3.69272   12.06329    7.16954
       O     2.74346   12.06589    7.35748
      H1     2.83099   11.76250    8.31641
       H    -1.14414   11.41884    9.90930
       O    -0.54921   12.15548   10.04527
      H1    -0.74960   12.74304    9.26255
       H     1.48212   13.96182    5.34708
       O     1.48243   14.18692    6.27567
      H1     1.92336   13.39143    6.64858
       H    -1.95638    9.36090   12.48755
       O    -2.87631    9.08143   12.65649
      H1    -2.80311    8.90517   13.60153
       H     7.97345    8.26093    7.34762
       O     7.40589    8.54212    8.08369
      H1     7.27600    9.49039    8.12384
       H     3.19309    8.27035    2.96994
       O     2.56286    8.64620    2.35136
      H1     2.60298    9.59669    2.43482
       H     6.89309    6.86479    8.61004
       O     6.49920    5.99269    8.41933
      H1     5.65395    6.10527    8.87677
       H    -1.95320    5.73680    7.80209
       O    -1.96641    6.61259    7.37053
      H1    -1.33533    6.50024    6.64371
       H     4.71709   13.97821   10.80128
       O     4.54438   13.15353   11.32701
      H1     3.81862   12.64517   10.92210
       H    -1.88112   13.75286    7.01237
       O    -1.19493   13.70331    7.71151
      H1    -0.37120   13.97798    7.25259
       H    -0.45774   13.96313   15.19812
       O    -0.37877   14.12613   14.26309
      H1    -0.64162   13.29314   13.84384
       H     8.62504   14.74467    6.86903
       O     9.14345   14.68130    6.01583
      H1     8.48270   14.43269    5.35418
       H    -0.02484   16.18107   10.76848
       O     0.66533   15.53498   10.54131
      H1     0.44631   14.59900   10.75501
       H     6.55054   14.57025    3.39820
       O     7.15463   14.94481    4.01236
      H1     6.59117   15.08687    4.72490
       H     2.27182   16.22756    9.95935
       O     2.87707   16.79643    9.47576
      H1     3.01492   16.54364    8.51903
       H     5.97118   12.16326   11.45150
       O     6.60006   11.45986   11.10981
      H1     7.43136   11.83064   11.20872
       H    -0.78549   11.64093    5.07228
       O    -0.60075   11.84253    4.15165
      H1    -0.88335   11.01559    3.63662
       H     1.11757    8.36720    9.15238
       O     0.84244    8.90751    9.93901
      H1     1.04846    8.50049   10.77607
       H     0.30230   11.29058   13.22595
       O    -0.58437   11.35774   12.92288
      H1    -0.63570   11.92091   12.15175
       H     6.37727   10.14852    3.49832
       O     6.56382    9.55174    4.26026
      H1     5.95140    8.85290    4.20506
       H     2.12392   12.33306    2.87336
       O     2.37780   11.49196    2.53573
      H1     2.68921   11.65705    1.64312
       H     4.96989   10.83766    5.90332
       O     5.16720   11.78706    6.18335
      H1     5.92321   11.79198    6.74423
       H     7.89617   11.68095    8.14584
       O     7.00767   11.35987    8.29482
      H1     6.76842   11.49668    9.20984
       H     6.10415   15.27522    9.27721
       O     5.46178   15.37187    9.99796
      H1     4.74491   15.98610    9.67857
       H     5.12329   13.97500    5.91718
       O     5.30255   14.84430    6.31781
      H1     4.45677   15.26835    6.54430
       H     2.77015    7.33655   12.36912
       O     2.97920    8.26606   12.12495
      H1     3.89563    8.31632   12.30309
       H    -1.74583   10.22460    7.40790
       O    -1.96008   10.46481    6.45751
      H1    -2.83867   10.88806    6.52904
       H     2.93494    7.44733    8.65944
       O     2.10416    7.49028    8.21030
      H1     2.29255    8.22916    7.59162
       H     0.49282   13.38189    3.69087
       O     1.29873   13.89099    3.55931
      H1     1.06749   14.72859    3.10298
       H     0.75864    8.03729    2.69548
       O    -0.10055    7.66710    3.03266
      H1     0.14323    7.25708    3.89362
       H     3.57189    5.82305    9.84899
       O     4.15936    6.56038    9.70957
      H1     4.22903    7.04032   10.53835
       H    -0.14532    7.04476   13.33815
       O    -0.21504    7.43945   12.40386
      H1    -1.16570    7.68181   12.39088
       H     6.31330    9.13190   12.89610
       O     5.94875    8.74982   12.11519
      H1     5.88559    9.47807   11.47952
       H     2.11425   10.39516   13.10034
       O     1.90585   10.73857   13.98329
      H1     2.56786   11.46859   14.06423
       H     1.21841   11.61214    9.98588
       O     2.18876   11.43122   10.00650
      H1     2.09754   10.43192    9.95543
       H     4.22487    7.12356    4.61725
       O     4.61805    7.52311    3.83809
      H1     5.37810    6.98675    3.66991
       H    -4.06416   14.40536    6.24983
       O    -3.36044   13.78863    5.97428
      H1    -3.04829   14.08845    5.15831
       H    -3.03366    7.72675    6.48515
       O    -3.41697    8.34310    5.79717
      H1    -2.89608    9.19702    5.80740
       H     5.23539   12.44311    2.64902
       O     4.77910   13.17346    3.09782
      H1     4.05256   12.79781    3.58850

