153
frame 3 | Written by MDAnalysis XYZWriter (release 2.4.3)
       H    18.54053  -17.42285   -8.18444
       O    18.42264  -17.11843   -7.25701
      H1    18.21792  -17.94798   -6.78192
       H    17.41175  -11.18078  -17.09467
       O    18.23323  -11.42154  -16.62063
      H1    18.59763  -10.56292  -16.33576
       H    13.33418  -18.03390   -6.16741
       O    12.55200  -18.49197   -6.51499
      H1    11.67845  -18.08714   -6.18075
       H     9.73982  -15.59917  -17.20230
       O    10.55127  -15.67289  -16.65074
      H1    11.23526  -15.30306  -17.27324
       H    12.67328  -17.73314  -17.08380
       O    12.74185  -17.42231  -16.21876
      H1    11.89360  -16.93735  -16.06394
       H     5.16167  -16.86842  -14.84760
       O     5.46615  -16.21514  -14.18917
      H1     6.31007  -16.51387  -13.80812
       H     9.14167  -19.09057  -15.01209
       O     9.74693  -19.50248  -14.34158
      H1    10.60475  -19.18489  -14.54112
       H    16.38928  -13.62574  -15.19103
       O    15.45646  -13.66363  -14.92175
      H1    15.24915  -14.56784  -14.73882
       H     8.29381  -17.00571   -9.12314
       O     8.33108  -16.09920   -9.55435
      H1     8.12804  -16.33743  -10.45803
       H    10.08190  -13.01397  -18.23870
       O     9.62471  -13.41152  -18.96664
      H1     8.70638  -13.14717  -18.82015
       H    15.15927  -16.27419   -5.86885
       O    14.84452  -17.14408   -5.58556
      H1    15.45583  -17.77008   -6.05317
       H    13.86037  -16.57285  -15.11449
       O    14.57064  -16.23381  -14.55673
      H1    14.30391  -16.52175  -13.61029
       H    18.53192  -18.35364  -19.22247
       O    19.10435  -18.99633  -19.60882
      H1    19.97341  -18.87974  -19.19202
       H    19.25902  -13.16970  -15.33064
       O    19.06121  -13.94665  -14.80686
      H1    19.80743  -14.16410  -14.22666
       H    11.46934  -11.84055   -8.65545
       O    10.53930  -12.15522   -8.64651
      H1    10.65441  -13.11946   -8.74993
       H    13.24241  -11.60994   -9.76003
       O    13.05828  -11.09461   -9.00993
      H1    13.89371  -10.61565   -8.93370
       H    12.84723  -18.35081   -8.32303
       O    12.62454  -18.26342   -9.25869
      H1    13.12839  -17.53001   -9.57729
       H    14.21486  -12.10598  -12.21864
       O    14.60963  -12.17382  -11.33073
      H1    15.56136  -12.00428  -11.34041
       H     9.45822  -19.15636   -6.33057
       O     9.60603  -18.44594   -6.96231
      H1     9.97488  -18.80147   -7.77386
       H    15.32103  -19.92082  -13.72843
       O    15.26350  -19.82045  -14.73461
      H1    15.81719  -19.10603  -15.05715
       H    15.76837  -12.80356  -18.79859
       O    15.84717  -13.65677  -19.28230
      H1    15.76120  -14.41593  -18.69343
       H    15.79441  -10.27839  -17.88512
       O    16.01885  -11.08259  -18.30076
      H1    16.67307  -10.88663  -18.96025
       H    11.05247  -14.00353   -6.04869
       O    11.80995  -14.52171   -6.30814
      H1    11.52736  -14.92306   -7.13041
       H    13.49759  -14.47539   -6.45119
       O    14.44975  -14.37220   -6.54761
      H1    14.65397  -13.49335   -6.23445
       H    12.41507  -14.18525  -18.92774
       O    12.51022  -15.07207  -18.56138
      H1    13.43317  -15.16627  -18.27489
       H     7.74750  -17.17767  -16.30166
       O     7.80498  -18.12577  -16.05362
      H1     7.45784  -18.62155  -16.79052
       H    17.16582  -19.91296  -16.19049
       O    17.39514  -18.94356  -16.22277
      H1    18.26552  -18.92125  -15.80017
       H    11.45621  -15.38312   -9.20934
       O    10.70969  -14.93766   -8.75494
      H1     9.94823  -15.41973   -9.13966
       H    19.19983  -12.56466   -9.50359
       O    19.04076  -12.76595  -10.42528
      H1    19.12510  -13.77379  -10.46206
       H    14.87848  -14.18501   -8.27328
       O    15.26141  -14.28811   -9.15688
      H1    15.04946  -13.44499   -9.56911
       H    18.21845  -16.35537  -17.76758
       O    17.68813  -17.08414  -18.12832
      H1    17.79043  -17.74357  -17.39334
       H    10.15296  -10.86862  -10.30263
       O    10.64132  -10.40737  -11.03807
      H1    11.05493  -11.11702  -11.56484
       H    14.52141   -9.44294  -15.38186
       O    14.42953   -9.79946  -14.50274
      H1    13.87809  -10.58823  -14.63085
       H    12.37923  -12.23596  -14.83882
       O    13.01113  -12.45749  -14.10909
      H1    13.75154  -12.69366  -14.67612
       H    16.61134  -15.28597  -10.27883
       O    16.87304  -15.97591  -10.95369
      H1    17.22708  -15.44479  -11.69219
       H    10.09815  -14.65301  -12.93902
       O     9.60382  -15.11292  -13.69715
      H1    10.16740  -14.98555  -14.43588
       H    19.37059  -14.60474  -16.53965
       O    19.33750  -15.14645  -17.30862
      H1    19.11789  -14.74783  -18.20280
       H    19.50112  -10.24069  -12.97767
       O    18.93566   -9.41717  -13.03759
      H1    18.04257   -9.60685  -12.70473
       H    16.38019  -10.07393   -9.06126
       O    15.53414  -10.00115   -9.47017
      H1    15.67634   -9.94027  -10.42165
       H    11.73440  -13.97874  -11.49227
       O    11.29474  -13.45791  -12.16871
      H1    11.89746  -13.52173  -12.92318
       H     9.26548  -13.46800  -11.07145
       O     8.63128  -12.78501  -10.80665
      H1     8.69189  -12.85834   -9.84711
       H    18.00370  -12.47732  -11.91662
       O    17.22348  -12.46712  -12.46315
      H1    17.36261  -13.04337  -13.23238
       H    10.76334  -11.02822  -15.91728
       O    11.37342  -11.61857  -16.39090
      H1    11.85605  -10.97416  -16.94462
       H    15.46356  -16.70200  -11.52565
       O    14.62500  -17.02340  -11.86078
      H1    14.61352  -17.97215  -11.69350
       H     8.20911   -9.79038  -12.46713
       O     8.13802  -10.66183  -12.89322
      H1     8.53595  -11.26170  -12.27902
       H    15.26841  -15.52423  -16.74479
       O    15.32127  -15.88787  -17.63064
      H1    16.16896  -16.34557  -17.69600
       H     8.10369  -16.57907  -18.66814
       O     7.63518  -16.00601  -18.04559
      H1     6.82442  -15.88572  -18.58516
       H    16.70609  -10.84589  -12.47509
       O    16.39589   -9.98832  -12.13572
      H1    15.81229   -9.65486  -12.81165
       H     8.69493  -16.73659  -12.82126
       O     8.07361  -16.99367  -12.13509
      H1     8.27021  -17.94886  -12.02745
       H    17.99129  -17.59011  -10.13910
       O    18.43106  -18.24785   -9.63541
      H1    17.75177  -18.87049   -9.37416
       H    13.67863  -14.73557  -10.11081
       O    12.92426  -15.21366  -10.48339
      H1    13.39638  -15.84685  -11.03259

