153
frame 0 | Written by MDAnalysis XYZWriter (release 2.4.3)
       H     1.91840   19.05606   -7.86273
       O     2.12519   18.11559   -8.18236
      H1     2.94423   17.83650   -7.79117
       H    -2.37879   17.71560   -2.72889
       O    -2.84949   17.40049   -1.95057
      H1    -2.83673   18.17132   -1.35316
       H     9.75804   15.78397    2.23196
       O     8.91737   16.15095    2.12646
      H1     8.21543   15.45651    2.34494
       H    -0.22968   14.88238   -2.20299
       O    -0.97317   15.23617   -1.67310
      H1    -1.30709   16.00662   -2.12911
       H     6.40597   13.45116   -1.35635
       O     5.75631   13.52971   -2.06527
      H1     6.22002   13.13731   -2.85474
       H     2.48917   18.95917    1.01263
       O     2.56815   18.03354    1.29810
      H1     1.74751   17.61972    1.08005
       H     6.99239   13.25622    4.34321
       O     7.14410   12.31128    4.63994
      H1     6.27904   11.91776    4.74828
       H     6.51076   12.71462   -5.23588
       O     7.07034   12.77121   -4.47043
      H1     7.35784   11.85542   -4.28106
       H    -1.83457   15.89599    2.95262
       O    -1.26329   16.71808    2.81450
      H1    -0.91305   16.71956    3.72120
       H    -1.86682   18.04023   -4.70421
       O    -1.17856   17.61366   -4.15143
      H1    -0.39826   18.15137   -4.15651
       H     0.36955   11.90124   -1.09551
       O     1.07063   11.62635   -0.55017
      H1     1.78325   12.17624   -0.85325
       H     3.93804   19.19062    5.50450
       O     3.92253   18.29973    5.93147
      H1     4.81294   17.95671    5.72213
       H     2.79954   18.24977    7.22585
       O     2.33292   18.05834    8.06910
      H1     1.40125   18.48379    7.87331
       H     7.09706   17.30181   -3.31655
       O     7.82904   17.85364   -2.91090
      H1     8.47295   17.82703   -3.59897
       H     3.40075   17.84773   -0.40245
       O     3.74117   17.61806   -1.26069
      H1     3.45461   18.39776   -1.79530
       H     2.19048   17.65355    3.50247
       O     2.14571   16.99085    4.24264
      H1     2.76605   17.27190    4.89048
       H     3.39923   13.73826    1.14044
       O     2.74962   14.41775    0.87322
      H1     3.21843   15.23129    1.18181
       H     0.46400   15.55822   -7.34523
       O     0.68674   15.85360   -8.26588
      H1     1.11891   16.73584   -8.13472
       H     4.57247   17.67190   -6.19367
       O     4.47319   17.01345   -6.87882
      H1     3.95343   16.30049   -6.40769
       H     8.87367   16.76207   -1.06693
       O     9.80176   16.77760   -0.74350
      H1     9.71784   16.61563    0.24232
       H    -0.12193   15.35645    2.58920
       O     0.32729   14.52842    2.44960
      H1     1.21251   14.75160    2.04151
       H    -0.91326   13.71364    1.21498
       O    -1.53698   13.66638    0.48305
      H1    -1.16852   14.34554   -0.14135
       H     5.68643   18.06644   -0.90917
       O     6.50452   18.45960   -0.61623
      H1     6.96387   18.64018   -1.45323
       H     2.66339   12.15827   -6.62303
       O     2.78454   12.19771   -5.65390
      H1     1.94363   12.02302   -5.25549
       H     8.46784   19.11072    2.39337
       O     8.10166   18.80524    3.20672
      H1     8.43668   17.86994    3.12233
       H    -0.47728   16.97916    1.39118
       O     0.03094   17.16911    0.59939
      H1    -0.23662   16.65630   -0.18984
       H     8.30979   15.24055    6.61357
       O     8.58656   15.62851    5.78694
      H1     7.91177   16.29570    5.59189
       H     4.62240   16.92674   -2.73665
       O     5.11724   16.27422   -3.27360
      H1     4.92421   15.47820   -2.80222
       H     6.21067   14.98882    2.45377
       O     6.98999   14.35434    2.49936
      H1     7.14072   13.85613    1.61856
       H     4.97636   11.27663    3.50900
       O     4.79331   11.01187    4.45170
      H1     3.89397   10.71089    4.33350
       H    10.81475   13.61577   -0.01070
       O    10.26950   13.92220   -0.80796
      H1    10.37621   14.89153   -0.79024
       H     4.86386   19.64159   -5.24100
       O     4.35043   18.89815   -4.90603
      H1     4.05493   19.20816   -4.07497
       H    -1.11743   18.85615   -0.00983
       O    -1.72467   19.53093   -0.32560
      H1    -2.48478   19.41628    0.23762
       H     0.95389   11.53443    2.81966
       O     1.56161   11.11712    2.22031
      H1     1.19941   11.44440    1.32533
       H     6.09087   18.52494    1.13722
       O     5.64227   18.52015    1.99931
      H1     6.37110   18.73244    2.62973
       H     9.17919   16.69067   -5.81922
       O     9.19583   17.56127   -5.40659
      H1     9.45499   18.15305   -6.08012
       H     1.68218   14.03774   -3.16379
       O     0.70511   13.90000   -3.38353
      H1     0.49902   14.27996   -4.22214
       H     9.52612   18.38724    0.45356
       O     9.66048   19.24183    0.85429
      H1     9.43013   19.91264    0.21072
       H     5.04698   16.98292    2.65306
       O     4.78228   16.06362    2.93081
      H1     3.89969   16.20042    3.30864
       H     3.96875    9.74035   -4.73775
       O     4.09167   10.33467   -3.95560
      H1     3.72460   11.10620   -4.34055
       H     5.10348   14.01607    6.86147
       O     5.08172   14.90283    6.56690
      H1     4.40878   15.32382    7.11426
       H     3.80390   15.31153   -4.69633
       O     3.14965   14.99333   -5.27691
      H1     3.19908   14.00996   -5.19676
       H    -0.84750   16.03922   -5.17521
       O    -0.28433   15.47576   -5.69032
      H1    -0.81210   14.75052   -5.93695
       H    -0.22292   12.47997    4.37528
       O     0.66573   12.81302    4.45730
      H1     0.73112   13.59603    3.84796
       H     0.66605   17.16200    5.57672
       O    -0.32681   17.02327    5.66854
      H1    -0.52751   16.49307    6.42805
       H     7.28711   12.29014   -0.14442
       O     7.60973   13.12921    0.22305
      H1     8.45172   13.31655   -0.10140
       H     0.42904   12.16392   -3.60358
       O     0.37581   11.33718   -4.06709
      H1     1.05979   10.74410   -3.68753
       H    -3.05223   13.41399   -4.06835
       O    -2.55911   14.20250   -4.18470
      H1    -1.98367   14.28870   -3.44200
       H     2.76886   14.21908   -1.14369
       O     2.86813   13.49503   -1.77371
      H1     3.81292   13.46622   -1.90124
       H     6.00618   16.33851    6.02307
       O     6.37468   17.17939    5.66516
      H1     6.55867   17.61905    6.52085
       H     4.30111   11.64045    0.90781
       O     4.03483   12.08421    1.75767
      H1     3.11115   11.81332    1.96371

