153
frame 4 | Written by MDAnalysis XYZWriter (release 2.4.3)
       H     1.86746   10.35686   -1.10936
       O     1.94423    9.58727   -1.69657
      H1     2.32736    8.88239   -1.11751
       H     1.75088    3.50232  -11.11627
       O     2.44403    2.91278  -10.71944
      H1     2.63117    3.28898   -9.82573
       H    -3.06042    5.29347    0.29345
       O    -2.87904    4.59207   -0.34032
      H1    -2.54415    3.91792    0.24761
       H     1.74062   11.53366   -5.54095
       O     2.61896   11.26470   -5.93737
      H1     3.05583   12.01055   -6.37290
       H    -0.54803    7.79102   -3.79173
       O    -0.18401    7.46801   -4.61595
      H1    -0.37010    8.07722   -5.34451
       H    -1.31186    3.76617   -7.72039
       O    -1.52830    4.52801   -8.25201
      H1    -1.09036    4.55750   -9.14450
       H    -1.15317    1.51126   -7.92510
       O    -0.35255    1.93859   -8.26433
      H1    -0.45710    1.96017   -9.22230
       H     3.19178    4.46489    0.77218
       O     3.67608    3.87054    0.17752
      H1     2.95979    3.46133   -0.29957
       H     7.90231    9.35820   -5.91460
       O     7.37925   10.09021   -5.64076
      H1     6.47994   10.02860   -6.03826
       H     0.55751    2.86068    0.59642
       O     0.74481    2.76328   -0.38467
      H1     0.53212    1.79497   -0.46306
       H     3.45671    4.82243   -5.71515
       O     3.65056    5.75570   -5.82333
      H1     3.22457    6.10073   -6.62647
       H     7.74876    9.90198   -2.26984
       O     7.82440    9.35677   -3.01341
      H1     7.34052    9.79803   -3.70608
       H     0.63439    6.19963    1.14754
       O     1.55165    6.26607    1.51648
      H1     1.65481    7.22281    1.65677
       H     0.90830    8.88881   -9.04418
       O     0.21892    8.37951   -9.57921
      H1     0.56180    7.46568   -9.62871
       H     5.28843    2.20873   -0.13737
       O     6.10522    2.39572   -0.64493
      H1     5.93910    3.02426   -1.37897
       H    -0.69113    5.80897   -2.58022
       O    -1.05352    4.94064   -2.35640
      H1    -1.62610    4.87598   -1.53362
       H     4.49166    3.34357   -4.32963
       O     3.61156    3.23878   -4.69063
      H1     3.05973    3.30797   -3.94753
       H     4.76429    0.86002   -2.89618
       O     3.91862    0.75719   -2.41610
      H1     4.20931    0.48862   -1.54025
       H     4.60334    3.70108   -8.40273
       O     3.64497    3.58666   -8.53143
      H1     3.26402    2.99955   -7.86590
       H    -0.31699    5.31287   -7.11061
       O     0.53021    5.47483   -6.64630
      H1     0.34044    5.91100   -5.81638
       H     1.80448    4.75289   -2.62288
       O     2.11440    3.87666   -2.32981
      H1     1.55282    3.41669   -1.68646
       H     1.67646    5.70468   -9.98307
       O     1.00869    5.39803  -10.60421
      H1     1.43797    5.51519  -11.49343
       H     2.61259    6.86186    0.05037
       O     3.16879    7.08524   -0.64800
      H1     2.71944    7.10083   -1.50346
       H    -1.45529   -0.08733   -4.84372
       O    -2.06841    0.55649   -5.14810
      H1    -1.85397    1.31537   -4.58467
       H    -0.95978   -0.43731   -1.09691
       O    -0.20389    0.14768   -1.32951
      H1    -0.39311    0.76823   -2.07914
       H     5.31159    8.04973    0.12069
       O     5.99195    8.45735    0.64745
      H1     6.06970    9.38748    0.43268
       H     3.31583   10.56152   -4.30607
       O     3.69692   10.09867   -3.58731
      H1     2.99682    9.83683   -3.01489
       H     3.06913    8.97320    2.40758
       O     2.13918    8.99389    2.08157
      H1     1.96062    9.89974    2.21552
       H    -5.29175    5.09268   -5.85323
       O    -4.66567    5.57493   -5.34084
      H1    -3.88745    4.95012   -5.24668
       H     2.80248    0.73774   -4.31440
       O     1.96179    0.38051   -4.69680
      H1     2.08252   -0.57712   -4.81393
       H     5.62180    5.20195   -6.60366
       O     6.16213    4.53841   -7.07206
      H1     6.37652    3.89277   -6.39869
       H    -1.65172    9.71325   -7.05073
       O    -1.43196    9.36730   -6.15268
      H1    -2.15468    8.71938   -5.89529
       H     0.03004    2.86358   -3.25288
       O     0.01802    1.90149   -3.36855
      H1     0.86357    1.58092   -3.65217
       H     7.03594    6.23385   -7.77649
       O     7.42292    6.90244   -8.38077
      H1     6.60768    7.40044   -8.66171
       H     4.95007    9.44468   -7.94318
       O     5.11383   10.32900   -7.55613
      H1     4.45087   10.61062   -6.94662
       H     7.12232    1.80563   -3.70497
       O     6.92850    1.09749   -3.08742
      H1     6.67401    1.54852   -2.28677
       H     2.14134    1.03635   -6.43489
       O     2.18595    1.46086   -7.29265
      H1     1.27010    1.63239   -7.46273
       H     2.48208    6.05916   -3.92430
       O     1.88636    6.51007   -3.29219
      H1     1.30384    7.06282   -3.83763
       H    -1.10009    7.37228    1.04349
       O    -0.89647    6.78492    0.29423
      H1    -0.70560    7.42704   -0.43202
       H     4.61014    8.46908   -9.89184
       O     4.68905    8.02661   -9.02145
      H1     3.91469    7.44832   -8.92366
       H     4.59845    7.32976   -5.08569
       O     5.16223    7.89211   -4.60370
      H1     4.66727    8.72438   -4.30335
       H     4.50343    4.47995   -1.85842
       O     5.28421    4.26168   -2.35659
      H1     5.78991    5.02720   -2.47135
       H     7.04483    7.80669   -2.38033
       O     6.48267    7.02333   -2.45409
      H1     6.09301    7.15521   -3.29162
       H     0.12781   11.72159   -2.49578
       O    -0.47454   11.67977   -3.28266
      H1    -1.27824   11.36894   -2.83249
       H     7.67724    2.17836   -6.20416
       O     7.28247    2.77330   -5.47516
      H1     7.92507    3.54622   -5.55173
       H     0.26580    9.70267   -6.94724
       O     1.03664    9.80944   -7.50646
      H1     1.66869   10.29435   -6.93007
       H     3.07291    5.17738   -8.45598
       O     2.62543    6.05242   -8.41947
      H1     1.80232    5.96585   -7.92548
       H    -2.95335    3.08030   -3.91352
       O    -2.55243    3.82827   -4.39771
      H1    -2.02185    4.28905   -3.70744
       H     0.41450    8.70846   -1.98756
       O    -0.46271    8.33538   -2.13763
      H1    -1.20746    8.95446   -2.13307
       H     6.85789    4.60824    0.76348
       O     7.60411    5.17777    1.11161
      H1     8.27759    4.48205    1.05516
       H     9.74070    5.40448   -2.69131
       O     9.29362    6.12890   -3.15780
      H1     8.55718    6.41864   -2.63432

