153
frame 0 | Written by MDAnalysis XYZWriter (release 2.4.3)
       H   -17.63458    0.61431   10.19123
       O   -18.37158    0.87763   10.77855
      H1   -18.28089    1.76758   11.08548
       H   -15.62524    7.98817   11.31917
       O   -15.55898    7.56512   12.15701
      H1   -16.34479    7.13366   12.33320
       H   -17.31041    5.75332   19.27739
       O   -17.87124    6.25192   19.84765
      H1   -17.62776    7.21563   19.72425
       H   -19.29496    4.31055    9.59294
       O   -19.35954    4.74215   10.44178
      H1   -18.88895    4.08561   10.95622
       H   -16.10579    6.04710    7.82897
       O   -15.38170    5.36409    7.95221
      H1   -14.84145    5.47625    8.77157
       H   -12.50486    3.87841   13.84016
       O   -12.71440    3.02889   14.15176
      H1   -12.09462    2.80748   14.79129
       H   -15.75330   -3.61870   12.74735
       O   -15.68538   -3.86285   13.69578
      H1   -16.55505   -3.75574   14.08407
       H   -16.87246    3.42592    7.56247
       O   -17.18463    2.62296    7.17078
      H1   -17.96190    2.35766    7.61878
       H   -12.02624    8.51108   13.51351
       O   -12.54992    8.55008   12.71025
      H1   -12.92139    7.65221   12.54179
       H   -19.69511   -5.12835   11.90292
       O   -18.75834   -4.80173   11.92827
      H1   -18.81973   -3.81073   11.78915
       H   -13.09998    2.87469   18.04704
       O   -12.38588    2.51419   18.59167
      H1   -12.13958    3.15131   19.26480
       H   -14.17554   -0.43928   15.66286
       O   -13.24568   -0.40663   15.89704
      H1   -13.01330   -1.03065   15.13607
       H   -13.87888    5.24303   11.37488
       O   -13.98749    4.72683   10.56929
      H1   -14.15779    3.87802   10.94098
       H   -13.51750    5.75139   13.94538
       O   -13.08107    5.73293   13.04106
      H1   -12.11006    5.61495   13.26169
       H   -17.68793    4.98537   15.20450
       O   -16.90388    4.59271   14.74031
      H1   -16.94725    3.74078   15.14838
       H   -15.31272    9.49333    9.11451
       O   -15.90403    8.77574    9.27010
      H1   -16.68660    9.33571    9.41358
       H   -15.78871   -1.62367   11.26996
       O   -15.83996   -2.57823   10.98563
      H1   -16.76640   -2.79965   10.82833
       H   -12.15996    4.38331    7.89592
       O   -11.89091    4.93731    8.60470
      H1   -12.52580    4.86308    9.32366
       H   -15.17255    2.51265   16.53995
       O   -14.39786    3.05678   16.82475
      H1   -13.86045    3.20759   16.07651
       H   -18.91267    2.58080   13.17800
       O   -18.37862    3.22041   12.67449
      H1   -17.86132    3.67537   13.36530
       H   -15.81512    2.14428    4.65018
       O   -16.12531    1.39361    5.10707
      H1   -16.55605    1.71294    5.92405
       H   -15.93477    9.04206   13.41818
       O   -15.90654    9.51204   14.27656
      H1   -16.52732   10.23888   14.29391
       H   -17.87714   -5.71818   14.73915
       O   -18.70672   -5.27789   14.51893
      H1   -18.61658   -5.12489   13.54203
       H   -15.47468    0.78767   12.29395
       O   -16.06274    0.04540   12.59154
      H1   -16.92169    0.28954   12.33218
       H   -16.48116    1.08625    8.11515
       O   -16.30104    0.36890    8.72488
      H1   -16.25678   -0.47105    8.24780
       H   -19.83247   -1.76977   19.44877
       O   -19.47891   -2.63602   19.17267
      H1   -19.35870   -2.45916   18.20635
       H   -13.70755    9.58896   16.25365
       O   -13.90358    8.70057   15.99694
      H1   -14.71243    8.81711   15.50946
       H   -17.37439    8.47011   14.99486
       O   -18.19485    8.08794   15.37885
      H1   -18.37020    8.83729   16.03765
       H   -14.31413    0.63710    9.58128
       O   -13.66599    1.28704    9.76574
      H1   -12.84871    0.81879    9.55589
       H   -15.99732   -0.13851   14.31456
       O   -15.92070   -0.24840   15.25034
      H1   -16.19747   -1.20182   15.34466
       H   -16.41544   -1.19840   18.63395
       O   -17.24913   -0.97053   19.06497
      H1   -17.70063   -1.77923   19.31285
       H   -16.43976    3.06954   18.97664
       O   -15.98341    2.50328   19.65825
      H1   -15.46063    1.90208   19.11846
       H   -12.95148    5.77143   16.95808
       O   -12.15195    6.21966   17.29731
      H1   -11.35171    5.71190   17.00454
       H   -16.21966   -2.09950    6.85072
       O   -16.06027   -2.52336    7.74778
      H1   -15.05280   -2.55327    7.85253
       H   -18.98977   -3.95008   15.99863
       O   -19.36660   -3.19113   16.40576
      H1   -19.61484   -2.70833   15.63391
       H   -12.56871   -2.20364   10.87379
       O   -13.10829   -2.42794   10.13223
      H1   -14.00088   -2.65975   10.47194
       H   -13.88048    2.34637   12.84144
       O   -14.41072    2.26966   12.07417
      H1   -13.97957    1.81375   11.31584
       H   -15.26793    4.84289   17.76464
       O   -15.42617    5.31725   18.51204
      H1   -14.79441    4.96566   19.13401
       H   -19.81785   -2.68949    6.96455
       O   -19.45437   -1.84125    6.70025
      H1   -18.83570   -2.03792    6.03546
       H   -12.64138   -2.93263   13.97388
       O   -12.43412   -1.95879   13.88469
      H1   -11.77599   -1.88226   13.19966
       H   -18.78291    6.23694   11.51055
       O   -18.37574    6.96925   11.91111
      H1   -18.73801    7.13796   12.75468
       H   -16.78508    7.96132    8.10337
       O   -17.10990    7.32195    7.41889
      H1   -18.03832    7.55929    7.37189
       H   -16.15558   -2.79715   16.86748
       O   -16.80882   -2.63272   16.16746
      H1   -17.65912   -2.81651   16.57533
       H   -19.37711   -1.77460   11.05804
       O   -18.69900   -2.19140   11.57608
      H1   -19.02457   -1.95420   12.47584
       H   -15.02673    8.79122   17.85093
       O   -15.62690    8.17194   18.31735
      H1   -15.16455    7.34361   18.39458
       H   -10.70158    1.07129   10.49364
       O   -10.48021    1.04602   11.47047
      H1   -11.12467    1.66078   11.88253
       H   -14.15014    6.85961   15.51560
       O   -14.13827    5.89672   15.49205
      H1   -15.01208    5.65234   15.80839
       H   -18.78038    1.97243   18.30566
       O   -18.92304    1.12860   17.92754
      H1   -18.18007    0.62832   18.21573
       H   -18.24728    1.66295   16.43392
       O   -17.74897    1.91429   15.57722
      H1   -17.05469    1.19570   15.45428
       H   -19.04631    8.98350    9.13909
       O   -18.56811    9.45054    9.83828
      H1   -18.70907    8.87188   10.61805
       H   -19.58372    3.88353   18.85781
       O   -18.69703    3.76642   18.46313
      H1   -18.83954    4.18222   17.58580

