153
frame 7 | Written by MDAnalysis XYZWriter (release 2.4.3)
       H   -13.16753    2.66713   -6.87932
       O   -12.85839    2.21823   -6.04189
      H1   -11.98063    1.90254   -6.39983
       H   -16.66408   -5.13327   -1.32815
       O   -16.80733   -4.26439   -1.63639
      H1   -17.10699   -4.43613   -2.62161
       H   -16.35203    1.05594    6.04378
       O   -15.97314    0.64840    5.22757
      H1   -16.43883    1.11642    4.51049
       H   -10.73134    4.07820   -4.35782
       O   -10.04512    4.40139   -4.95713
      H1   -10.23458    5.32754   -5.12569
       H   -15.70478    4.36503   -2.49459
       O   -15.02291    4.56250   -3.13031
      H1   -14.92353    5.53037   -3.04723
       H    -9.24882   -2.35873    2.39919
       O    -8.29173   -2.26374    2.66316
      H1    -8.04276   -1.31780    2.62367
       H   -18.07596   -4.30256   -0.13283
       O   -18.47201   -4.56010    0.72689
      H1   -19.16444   -3.90884    0.99465
       H   -16.98367    0.24410    2.31088
       O   -16.73090    1.04570    2.76209
      H1   -17.41893    1.69575    2.61723
       H   -13.55684   -4.12521   -4.51949
       O   -14.49648   -3.80970   -4.37384
      H1   -15.00147   -4.64986   -4.31396
       H   -12.66705   -2.78223   -1.30659
       O   -11.83547   -2.97908   -1.85040
      H1   -11.03391   -2.93293   -1.26931
       H   -15.35826   -2.32935   -4.96205
       O   -15.71929   -1.42200   -4.98683
      H1   -15.23535   -0.82582   -4.45683
       H   -11.30988   -4.78882    2.72315
       O   -11.35905   -4.25810    3.55755
      H1   -10.54170   -4.47061    4.06382
       H    -9.73509    0.75791    3.42031
       O    -9.66520    1.37502    2.64670
      H1    -9.04176    1.07215    1.97232
       H   -13.20619   -1.18067    2.41971
       O   -12.86968   -1.63947    1.63273
      H1   -13.60674   -1.92560    1.04887
       H   -10.75474   -1.02852    4.40163
       O    -9.95617   -0.52812    4.54171
      H1   -10.17210   -0.08539    5.35984
       H   -16.56757   -1.89765    1.83001
       O   -17.37066   -1.41884    1.76652
      H1   -17.61187   -1.51927    0.79901
       H   -14.11421   -1.74673    4.49188
       O   -13.77549   -0.87427    4.17931
      H1   -14.45914   -0.18582    4.42865
       H   -18.49335   -4.76909   -4.53839
       O   -17.65447   -4.34945   -4.58117
      H1   -17.93027   -3.47679   -4.88039
       H   -16.88370    4.46997   -5.80559
       O   -16.23676    3.80001   -5.64800
      H1   -15.79259    4.13235   -4.83926
       H   -18.65365   -1.93732   -6.44388
       O   -18.44584   -1.76766   -5.47624
      H1   -17.47716   -1.54899   -5.40112
       H   -15.20912   -3.85757    3.62804
       O   -15.84437   -3.53761    2.93303
      H1   -16.00835   -4.31692    2.42777
       H   -13.08793   -0.05171   -3.88561
       O   -13.93380    0.42875   -3.79630
      H1   -13.94078    1.02890   -4.49929
       H   -15.33637    4.78413    1.23691
       O   -15.00307    4.63326    0.34507
      H1   -14.79273    3.69039    0.24016
       H   -12.16488    5.05196    2.62543
       O   -12.91320    5.36603    2.17707
      H1   -13.03261    4.79928    1.42235
       H   -12.97631   -3.57388    4.25798
       O   -13.78808   -3.47054    4.76637
      H1   -13.76485   -4.09975    5.48601
       H   -16.31024    2.41141   -6.70696
       O   -16.67387    1.64091   -7.20753
      H1   -15.86696    1.20390   -7.56184
       H    -8.25884    0.68713   -2.13800
       O    -7.35864    0.67340   -2.54870
      H1    -7.32450   -0.21082   -2.94758
       H   -10.75430    1.20640   -1.17133
       O   -10.59224    1.37273   -2.09778
      H1   -11.19981    2.08194   -2.37761
       H   -11.64259   -4.11323   -4.89836
       O   -11.97232   -4.67239   -4.16071
      H1   -11.73872   -4.11665   -3.36795
       H   -13.47803    0.71009   -8.48039
       O   -13.91917    0.11625   -7.89364
      H1   -13.60740    0.47358   -7.05559
       H    -9.86335   -1.39653   -4.89404
       O    -9.01894   -1.49168   -5.35234
      H1    -9.06110   -2.37877   -5.69195
       H   -11.29976    3.66746    1.08859
       O   -11.62405    3.33317    0.22523
      H1   -12.00056    2.47969    0.51726
       H   -10.38358   -3.82607    0.99891
       O   -10.41479   -2.88221    0.99440
      H1   -11.32621   -2.68892    1.23543
       H    -7.45976   -2.48965   -0.80072
       O    -7.53578   -1.77897   -0.16911
      H1    -8.07308   -2.16913    0.59893
       H   -18.16741    4.64056    2.38649
       O   -18.07862    3.69535    2.57188
      H1   -17.55230    3.77774    3.34909
       H   -17.70502   -2.45586   -1.91667
       O   -18.18642   -1.68730   -1.72778
      H1   -18.26925   -1.16259   -2.49417
       H   -12.43638    0.17771    1.46474
       O   -12.56975    1.13312    1.59736
      H1   -11.71524    1.40145    2.01197
       H   -12.64831    3.04956   -4.41446
       O   -12.34024    3.28518   -3.51456
      H1   -12.96387    3.94321   -3.19320
       H   -14.09541    0.10690   -2.02827
       O   -14.00846    0.04275   -1.10733
      H1   -14.52793    0.81556   -0.75777
       H   -13.37849   -7.30689   -3.17199
       O   -13.38965   -6.47468   -2.66948
      H1   -12.68705   -6.05059   -3.06976
       H    -9.63068    4.53373    2.91262
       O   -10.25602    4.10105    2.35465
      H1   -10.02916    3.16335    2.51944
       H   -11.33784   -0.01173   -3.15087
       O   -11.38191   -0.86204   -3.61308
      H1   -11.61589   -1.60137   -3.04743
       H   -14.57191    1.77539    0.92812
       O   -15.15198    1.98451    0.19748
      H1   -16.05519    1.94697    0.45844
       H   -18.96446    2.11844   -0.76014
       O   -19.31496    2.24722    0.13797
      H1   -18.88261    3.08408    0.46621
       H   -17.15894    2.81389   -4.23671
       O   -17.53749    2.29779   -3.50683
      H1   -16.95088    1.54172   -3.47907
       H   -10.57108    0.53582   -7.67614
       O   -10.48895    1.34377   -7.17537
      H1   -10.15722    1.07575   -6.34845
       H   -16.19579    6.16091   -0.20213
       O   -16.41573    6.99511    0.19049
      H1   -16.46681    7.59610   -0.55153
       H    -9.94998    3.41482   -0.41574
       O    -8.92650    3.41017   -0.42157
      H1    -8.59073    3.85216   -1.23471
       H   -12.19136   -3.44328   -6.80576
       O   -11.51554   -2.87334   -6.38543
      H1   -10.65314   -3.23723   -6.58232
       H   -15.19343   -3.01303   -1.28366
       O   -14.46771   -2.66879   -0.76442
      H1   -14.31622   -1.77810   -1.08593
       H    -7.97215    0.03115   -0.16693
       O    -8.44602    0.73779    0.30044
      H1    -8.27272    1.62920   -0.02405

