153
frame 0 | Written by MDAnalysis XYZWriter (release 2.4.3)
       H     7.79161    0.21368   -0.46204
       O     7.58161   -0.56905    0.06593
      H1     8.41867   -0.81354    0.52556
       H     6.08049   -1.69219    2.84546
       O     5.96132   -1.98826    1.90086
      H1     6.51162   -1.40610    1.36121
       H    10.91585   -1.20110   -0.60262
       O    11.49413   -1.26772   -1.41753
      H1    11.98134   -2.14172   -1.35586
       H     7.24983    2.97319    5.05484
       O     7.69681    2.09869    5.03795
      H1     7.35932    1.76732    5.85310
       H    15.92949   -4.74167    2.33508
       O    16.00466   -5.03567    1.35516
      H1    15.08927   -5.42973    1.18618
       H    14.28369    3.75962    2.27009
       O    15.05959    3.72392    1.69567
      H1    15.36522    2.82312    1.61088
       H    13.08559   -4.32338   -1.75189
       O    12.25893   -4.02130   -1.30400
      H1    11.63610   -3.99749   -2.05113
       H    18.84475   -0.29242    2.09829
       O    19.38568    0.42479    1.78656
      H1    19.43180    0.95112    2.60672
       H    14.55240   -6.61656    4.45469
       O    13.76318   -6.06655    4.55963
      H1    13.38272   -6.37016    5.41839
       H    12.40096   -4.59615    6.75555
       O    13.24751   -4.24519    7.02335
      H1    13.50938   -3.69295    6.32687
       H    12.39707    3.07584   -0.76974
       O    12.31593    3.99909   -0.84046
      H1    13.18136    4.35651   -0.94144
       H    13.17253    2.11111    6.59564
       O    13.32517    1.72612    5.68984
      H1    13.25619    2.48615    5.07179
       H    12.68022    4.55104    5.08973
       O    12.61289    3.94216    4.33368
      H1    11.64202    3.77620    4.30094
       H     9.39162   -0.08089    2.64324
       O     8.92305   -0.03553    3.46604
      H1     8.75847    0.92464    3.58941
       H    14.88895   -2.27733    8.41262
       O    14.80134   -2.59929    9.32140
      H1    15.50313   -3.23404    9.44987
       H    16.31195    0.75159    1.70037
       O    16.64578    1.40760    1.15706
      H1    17.59076    1.27360    1.08144
       H    14.62940   -1.35833   -2.69186
       O    15.02171   -1.47009   -1.77301
      H1    15.61838   -0.72197   -1.61948
       H     8.80625   -4.29829   -0.36438
       O     8.28018   -3.88488   -1.00984
      H1     8.80148   -3.15378   -1.41735
       H    14.19431   -4.35808    4.51656
       O    14.35875   -3.36685    4.55234
      H1    15.11452   -3.29997    5.13016
       H     9.58693   -6.31345    4.75340
       O    10.25422   -5.71660    4.36346
      H1    10.67385   -6.19298    3.62111
       H    15.99613    1.30719   -0.55395
       O    15.61698    1.48917   -1.39956
      H1    16.31822    1.88451   -1.97348
       H    16.61872    0.39643    5.33923
       O    16.98119   -0.25962    4.71515
      H1    16.31040   -0.35362    4.02125
       H    10.01885    0.41594    0.89765
       O    10.07012   -0.53591    0.98242
      H1    10.96122   -0.82864    1.29836
       H    17.00148   -1.87989    5.44748
       O    17.11598   -2.84340    5.47047
      H1    17.35224   -3.01627    6.35573
       H    14.06779   -1.04719    5.89847
       O    14.06855   -1.23713    6.80674
      H1    13.20126   -1.54680    7.00022
       H    11.18219    5.77887    2.01387
       O    11.02424    4.90931    1.65133
      H1    11.56694    4.85374    0.81694
       H     6.55508   -0.48327    6.19966
       O     6.46764    0.04522    7.00853
      H1     6.66627   -0.58867    7.73399
       H     6.10861    2.37466    2.37039
       O     5.85884    1.65922    2.95078
      H1     6.34198    1.71806    3.76876
       H    14.42460   -3.60873    1.00691
       O    14.02068   -2.75701    0.97709
      H1    14.15820   -2.37288    0.16599
       H    13.60630    1.27691   -1.40630
       O    12.61669    1.37148   -1.31474
      H1    12.28822    0.52822   -1.16762
       H    12.72443   -2.23363    1.95500
       O    11.99219   -1.85592    2.46287
      H1    11.87245   -2.43032    3.21009
       H    11.37176    1.56797    1.83955
       O    10.88502    2.13978    1.21797
      H1    11.14216    3.01130    1.50349
       H     8.53933   -3.60615    2.76455
       O     9.06128   -3.45610    3.58367
      H1     9.69729   -4.17551    3.69496
       H    12.24325   -0.20749    2.94649
       O    12.58428    0.69452    3.13273
      H1    12.62169    0.63545    4.08260
       H    12.03115    2.56040   -4.30131
       O    12.38010    1.72357   -3.97014
      H1    12.41851    1.82805   -2.95601
       H    13.01808   -5.26833   -0.12298
       O    13.57827   -5.77546    0.48635
      H1    13.65891   -6.60607   -0.01867
       H    10.92591   -1.92257    8.20063
       O    10.22367   -1.56412    7.65520
      H1     9.88626   -2.34670    7.19686
       H    15.17665   -1.47016    2.70563
       O    15.20778   -0.53134    2.76943
      H1    14.33252   -0.14270    2.83416
       H    17.17169   -2.60635    1.00220
       O    17.86027   -2.24633    1.51117
      H1    18.09305   -2.95935    2.09178
       H     7.30156   -2.18814    4.65283
       O     6.80882   -1.34447    4.57165
      H1     7.41410   -0.74216    4.09635
       H    16.61834    3.90767    2.79781
       O    17.47312    4.18624    3.20663
      H1    17.28017    4.97970    3.75886
       H    10.53927    3.50286    7.45182
       O    10.69025    3.38930    8.37388
      H1    10.08643    2.72485    8.68991
       H    16.31818    2.40763    6.68415
       O    16.11280    1.43080    6.66280
      H1    15.15424    1.39739    6.63233
       H    12.07148   -6.37604    1.54043
       O    11.47986   -6.86668    2.16809
      H1    11.87113   -7.71769    2.42311
       H     8.43166   -4.36394    6.35777
       O     9.07489   -3.69033    6.17014
      H1     8.94147   -3.56148    5.19331
       H    10.42918   -0.58317    6.10070
       O    10.59758    0.11026    5.51212
      H1    10.01999   -0.08516    4.73172
       H    12.25086    2.49763    8.51013
       O    12.92630    1.90224    8.82328
      H1    12.42339    1.17953    9.26941
       H    15.50937    5.10935   -1.67459
       O    14.83896    4.93114   -0.99368
      H1    15.17927    4.31758   -0.28804
       H     7.91977    3.73603    1.98377
       O     8.48684    4.21894    2.64208
      H1     9.37920    4.32943    2.28340
       H    10.63892    2.08594    5.67696
       O    10.24231    2.94381    5.64838
      H1     9.31482    2.78248    5.40447
       H     9.47082    1.27224   -1.90757
       O     9.13545    1.43605   -0.99429
      H1     9.79405    1.86039   -0.42881

