153
frame 10 | Written by MDAnalysis XYZWriter (release 2.4.3)
       H    -7.35385    9.65806  -18.52388
       O    -8.25977    9.99801  -18.56855
      H1    -7.96884   10.88523  -18.62784
       H     2.14233   15.69221  -15.84905
       O     3.05550   15.55557  -16.14926
      H1     3.01568   15.63848  -17.14585
       H     4.79920   18.43464  -15.09748
       O     4.12420   17.85233  -14.74388
      H1     4.00949   17.25165  -15.51220
       H    -6.29792   15.76346  -16.26785
       O    -5.45469   15.30426  -16.17382
      H1    -4.95799   15.45922  -16.95072
       H    -2.75304   17.11257  -13.19622
       O    -3.14555   17.90512  -13.56435
      H1    -2.46579   18.10331  -14.20200
       H     6.57856   16.46542  -18.48656
       O     6.01978   17.15202  -18.80074
      H1     6.37295   17.99431  -18.44109
       H     0.93129   15.55012  -13.65008
       O     0.84292   15.53595  -14.62660
      H1     0.89633   14.61185  -14.86809
       H     0.62420   12.25643  -11.73535
       O    -0.34659   12.26578  -11.50938
      H1    -0.66258   11.37882  -11.40361
       H     2.42797   13.85564  -12.09963
       O     2.40153   12.91660  -12.28477
      H1     2.19421   12.74307  -13.23292
       H     5.13466   15.58060  -14.06731
       O     5.58535   14.79486  -14.38465
      H1     5.03224   14.54435  -15.12154
       H    -1.98768   17.09324  -17.26777
       O    -1.30705   16.57516  -16.85690
      H1    -1.42477   15.61605  -16.89059
       H    -3.72475   16.79276  -18.52688
       O    -3.93351   15.89689  -18.34470
      H1    -4.39399   15.62822  -19.17879
       H     0.12982    6.47610  -14.05118
       O    -0.39723    6.48226  -13.23587
      H1     0.17322    6.05149  -12.58157
       H    -5.98146   13.47575  -16.19638
       O    -6.34806   12.64647  -16.50855
      H1    -6.04488   11.89072  -15.98149
       H    -5.87971    8.15534  -17.62953
       O    -5.81583    8.85605  -18.32536
      H1    -4.93616    9.29516  -18.20437
       H     0.11704   18.30540  -14.47369
       O    -0.63089   18.45803  -15.05513
      H1    -0.84991   17.61613  -15.41823
       H    -2.52052   12.94586  -13.52507
       O    -1.67731   13.47626  -13.45873
      H1    -1.06888   13.03451  -12.79690
       H    -1.54444    7.50777  -16.11266
       O    -2.49320    7.66531  -15.74848
      H1    -3.06634    7.30635  -16.48059
       H     1.26892    8.43369  -11.20511
       O     1.29132    8.60360  -12.19138
      H1     0.46999    8.19199  -12.49543
       H    -1.22799   10.18838  -15.27999
       O    -0.36484   10.55214  -15.66257
      H1    -0.51388   10.82803  -16.57049
       H    -0.37068    5.23182  -17.85770
       O    -0.16220    5.33370  -18.78082
      H1     0.30898    6.15140  -18.78693
       H     6.47375    9.84946  -16.28272
       O     7.06405    9.49737  -15.57222
      H1     7.77306   10.13805  -15.55401
       H     2.46153    8.78549  -18.64715
       O     2.44641    8.29674  -19.44094
      H1     2.72150    8.92053  -20.14604
       H     5.73244   13.53883  -12.88047
       O     5.34936   13.04847  -12.11386
      H1     4.43341   13.30062  -12.18029
       H     6.97215   17.35700  -14.57565
       O     7.03108   16.98634  -15.47181
      H1     6.64779   16.14415  -15.36774
       H     2.64904   18.07639  -13.76964
       O     1.66967   18.27637  -13.48944
      H1     1.73078   17.99125  -12.52613
       H    -4.42801   11.26987  -13.87435
       O    -4.16217   12.14894  -13.54004
      H1    -4.99838   12.65512  -13.56809
       H     0.56578    8.64269  -19.41119
       O    -0.32445    9.03615  -19.51845
      H1    -0.89122    8.50092  -18.93393
       H    -6.05069   17.01109  -18.12270
       O    -6.81911   17.06555  -17.50652
      H1    -7.50853   16.57280  -17.91074
       H     6.45473   13.25215  -17.51170
       O     7.12730   13.25082  -18.20530
      H1     7.93629   13.44110  -17.69418
       H    -0.05357   12.78166  -19.34182
       O    -0.10050   13.59382  -18.72460
      H1    -0.84829   13.45234  -18.07687
       H     0.44108    8.91362  -16.25919
       O     0.64968    7.96250  -16.31745
      H1     1.23724    7.91372  -15.54370
       H    -8.45865   14.46000  -16.97445
       O    -8.47351   14.21627  -16.06774
      H1    -7.67145   13.67920  -16.04621
       H     3.10262    9.71719  -16.38047
       O     3.31843   10.01125  -17.25588
      H1     4.22011    9.74166  -17.57292
       H     3.89511   13.29419  -16.83286
       O     4.71575   12.86507  -16.53666
      H1     4.40908   12.12105  -15.99182
       H    -8.15696   13.10555  -18.56518
       O    -7.37373   12.60887  -18.82857
      H1    -6.75913   12.54513  -17.99059
       H     2.70655   16.71946  -18.77588
       O     3.38770   16.02057  -18.81091
      H1     4.20112   16.53505  -18.92670
       H    -3.58862   18.97711  -17.52051
       O    -2.85496   18.57728  -17.99335
      H1    -2.87499   18.98256  -18.87700
       H    -1.55893   13.42328  -15.64620
       O    -2.04008   13.68077  -16.46301
      H1    -2.88857   13.86573  -16.13107
       H     0.54385   17.48796  -17.58136
       O     1.25576   17.82231  -18.17196
      H1     1.72470   18.51222  -17.68619
       H    -3.37677    6.98139  -19.26882
       O    -2.47876    7.06380  -18.92638
      H1    -1.87428    6.32255  -19.19772
       H     1.19790   12.63967  -15.78746
       O     1.04850   12.81231  -14.80260
      H1     0.46509   12.04175  -14.63819
       H     4.39809   11.90540  -13.52200
       O     4.38361   11.25975  -14.24319
      H1     4.94810   10.58780  -13.94547
       H    -3.86421    9.93572  -15.09616
       O    -4.72745   10.22434  -15.46169
      H1    -5.31589    9.77904  -14.88844
       H     6.48901    8.36651  -18.52603
       O     5.78797    9.12359  -18.50560
      H1     6.15440    9.86602  -19.01563
       H    -2.21260   15.29241  -12.49973
       O    -2.57961   15.84753  -11.76794
      H1    -2.00013   15.68089  -11.02478
       H    -2.28640    8.80632  -14.18881
       O    -2.41186    9.78055  -14.02219
      H1    -2.51307    9.92774  -13.07847
       H     1.35864   13.25419  -18.00569
       O     1.91724   12.78514  -17.37772
      H1     2.41373   12.11853  -17.82757
       H     3.22512    9.89579  -14.26445
       O     2.73183    9.08577  -14.46389
      H1     2.32090    8.80052  -13.65201
       H     3.83792    6.79622  -17.30400
       O     4.00938    6.74487  -16.36653
      H1     4.24594    7.62222  -16.10672
       H    -3.48991   11.11357  -18.62409
       O    -3.64790   10.48204  -17.93413
      H1    -3.97280   10.88209  -17.14155

