153
frame 0 | Written by MDAnalysis XYZWriter (release 2.4.3)
       H   -15.18382   12.21431    2.03245
       O   -16.14373   12.48009    1.90134
      H1   -16.04709   13.18157    1.27351
       H   -16.69225   12.00384   -1.98552
       O   -15.98213   11.38096   -2.12205
      H1   -15.68091   11.34448   -3.07379
       H   -14.75819   19.07444    0.96652
       O   -15.37630   19.65261    0.49384
      H1   -14.71316   20.08855   -0.10862
       H   -10.85830   17.52111   -1.65519
       O   -11.51274   17.51379   -0.91983
      H1   -11.15471   16.79059   -0.41482
       H   -17.66813    9.20392   -5.94227
       O   -17.73197    9.76093   -5.15099
      H1   -17.64575    9.19060   -4.37402
       H   -18.66085   12.46746    4.54428
       O   -18.68849   12.00830    5.39420
      H1   -18.96429   12.62424    6.07469
       H   -16.76718   16.42579    5.60248
       O   -17.33144   17.16703    5.94091
      H1   -17.06006   17.68924    6.72140
       H   -12.96676    9.93261   -2.16467
       O   -12.60648    9.85972   -2.99876
      H1   -12.75859   10.73384   -3.43173
       H   -19.89042   12.13186    1.07297
       O   -19.76398   13.03058    0.71810
      H1   -19.16776   13.48108    1.31825
       H   -13.36029   16.83705   -0.61754
       O   -14.14469   16.29087   -0.42491
      H1   -14.92518   16.85215   -0.37696
       H   -18.93975   16.60353   -5.37960
       O   -18.55855   17.40689   -5.77493
      H1   -19.22722   18.06822   -5.40734
       H   -13.04925   15.51270    4.31937
       O   -12.60988   16.36405    4.16480
      H1   -11.83732   16.34076    4.72611
       H   -14.76917   17.27972    3.71624
       O   -15.09821   17.66913    2.89198
      H1   -16.01829   17.43847    2.98802
       H   -12.56680   12.49716   -5.96190
       O   -12.85297   13.41119   -6.07416
      H1   -12.29591   13.65542   -6.83278
       H   -11.35769   18.96044    0.08188
       O   -11.41716   19.76232    0.59838
      H1   -11.46973   19.40292    1.49728
       H   -13.37204   17.70671   -5.78672
       O   -13.02966   17.98272   -4.88843
      H1   -12.53188   17.18860   -4.54421
       H   -16.11832   18.45906   -0.73175
       O   -16.64262   17.68044   -0.95091
      H1   -16.56549   17.54285   -1.91353
       H   -17.14783   13.52413    2.91998
       O   -18.05014   13.62792    3.29402
      H1   -17.94229   14.40940    3.80561
       H   -15.72178   15.31190    0.60660
       O   -16.58391   14.90540    0.86033
      H1   -17.20531   15.18036    0.22041
       H   -19.33396   18.95600    0.34234
       O   -18.93979   18.76212   -0.54779
      H1   -18.05708   18.40864   -0.36307
       H   -13.51557   12.44088    0.83240
       O   -13.38910   11.74709    1.47388
      H1   -13.69306   11.00792    1.01546
       H   -15.79206   13.76457   -2.81437
       O   -14.97472   14.11248   -3.22854
      H1   -14.29554   13.78989   -2.58413
       H   -13.98619   18.92791    4.15642
       O   -13.46555   19.58813    4.69268
      H1   -13.44244   20.29820    4.06224
       H   -14.85328   15.53700    5.79511
       O   -15.43596   15.29461    5.07095
      H1   -15.70960   14.35609    5.14759
       H   -10.87037   16.73275   -6.34945
       O   -11.42659   16.06691   -6.76283
      H1   -12.34017   16.35946   -6.81848
       H   -17.21920    7.08654   -3.22118
       O   -17.58678    7.93521   -2.90784
      H1   -17.04280    8.22114   -2.13563
       H   -15.61876   12.42616   -4.84416
       O   -15.41824   11.44780   -4.81667
      H1   -16.29395   11.04679   -4.93870
       H   -10.91693   12.39241   -0.21075
       O   -11.00853   13.31531   -0.44872
      H1   -10.60534   13.33225   -1.33824
       H   -12.31017   14.73503   -4.83664
       O   -12.47231   15.24377   -3.99392
      H1   -13.23782   14.84246   -3.53111
       H   -13.29190    9.35511    0.22067
       O   -13.67718    9.87131   -0.47990
      H1   -14.54434    9.50428   -0.42190
       H   -18.69544   17.11331    1.52195
       O   -18.17937   16.89647    2.35660
      H1   -17.59387   16.19923    2.02542
       H   -17.42165   10.79320    1.69620
       O   -18.00571   10.13398    1.30017
      H1   -17.89162    9.28126    1.73224
       H   -16.89454   15.92771   -3.68755
       O   -17.05317   16.82326   -3.54445
      H1   -17.48186   17.08853   -4.37327
       H   -18.50118   12.80733   -2.45704
       O   -17.85818   13.42924   -2.82005
      H1   -18.17823   14.23158   -2.33736
       H   -14.86069   15.36890   -6.85834
       O   -15.24686   14.48574   -6.84375
      H1   -14.63511   13.92927   -6.39258
       H   -19.77193   13.54627    8.09259
       O   -18.91920   13.68719    7.74623
      H1   -19.09073   14.44480    7.16293
       H   -18.87722   14.04970   -6.94292
       O   -18.44135   13.57906   -6.24749
      H1   -17.63835   13.24668   -6.70634
       H   -18.46032   18.76348    5.21063
       O   -19.05023   19.06474    4.50350
      H1   -18.97741   18.34879    3.90127
       H   -15.71913   17.97666   -3.85529
       O   -15.37890   18.85134   -3.91473
      H1   -14.41643   18.78756   -4.14437
       H   -19.04361   18.15353   -8.68638
       O   -19.39570   17.38028   -8.21597
      H1   -18.86405   17.34423   -7.37480
       H   -15.06608   17.81966   -7.04283
       O   -14.37867   17.08193   -7.16775
      H1   -14.14417   17.15601   -8.10678
       H   -12.57467   13.60541   -0.66653
       O   -13.53514   13.65763   -0.81081
      H1   -13.80921   14.58655   -0.71370
       H   -15.49922   12.13890    5.60422
       O   -16.15615   12.80273    5.68361
      H1   -17.04630   12.43550    5.43971
       H   -18.90550   16.38094    6.19593
       O   -19.64863   15.73106    5.91401
      H1   -20.46831   16.20330    6.12818
       H   -18.36636   10.46026   -1.17253
       O   -18.92087   11.15167   -1.47808
      H1   -18.98446   11.86598   -0.83525
       H   -18.82017   16.55983   -0.59080
       O   -18.71044   15.56687   -0.69244
      H1   -19.45764   15.14192   -0.28873
       H   -16.90492    9.49710   -0.02371
       O   -16.38757    9.13464   -0.75301
      H1   -16.20811    9.89364   -1.39371
       H   -10.44699   14.50706   -3.48702
       O    -9.75046   13.90740   -3.08916
      H1    -9.26906   13.59936   -3.86658
       H   -10.71163   14.85067    0.47453
       O   -10.60452   15.67297    0.99609
      H1    -9.72324   16.06357    0.92881
       H   -16.57424   13.72284    8.92721
       O   -15.75352   13.54349    8.39826
      H1   -16.06191   13.34898    7.46490
       H   -16.04850   13.46811   -7.86251
       O   -16.44963   12.77486   -8.43098
      H1   -15.70759   12.07808   -8.50625

