153
frame 11 | Written by MDAnalysis XYZWriter (release 2.4.3)
       H     7.66323   10.16133  -11.91529
       O     8.65145   10.11658  -11.64251
      H1     8.71779   10.76070  -10.90793
       H    15.86570    8.41740   -5.83569
       O    15.95158    9.23752   -6.40078
      H1    15.12775    9.74502   -6.22721
       H    13.25902   10.16049  -13.11401
       O    13.40250   11.05392  -13.19993
      H1    13.97084   11.36646  -12.51549
       H    13.09906   12.42434  -15.61315
       O    13.64812   13.09151  -16.07795
      H1    14.46418   12.96576  -15.56277
       H    17.18711   14.89142  -15.98639
       O    17.19853   14.85331  -15.00369
      H1    16.60513   14.17365  -14.76040
       H    16.70271   13.69267   -4.94720
       O    16.13969   14.39185   -4.54975
      H1    15.55945   13.97503   -3.89947
       H    17.46378   16.71667   -7.04575
       O    18.18272   17.16130   -6.53880
      H1    18.45488   16.58531   -5.81522
       H    11.94823    5.11173   -7.65022
       O    11.31150    4.99653   -6.90761
      H1    11.80482    5.10613   -6.04855
       H    14.90401   11.42887   -2.98198
       O    14.65077   12.31663   -3.23268
      H1    13.72813   12.21652   -3.60624
       H    14.19755   13.44342   -9.49284
       O    14.59725   14.29215   -9.70622
      H1    13.82291   14.80940   -9.99022
       H    15.31354   13.31650  -10.81324
       O    15.70961   12.69963  -11.45819
      H1    16.62605   12.65625  -11.14249
       H    15.23898    7.90154   -8.01411
       O    14.39622    8.00580   -8.46856
      H1    13.94811    8.70755   -8.00024
       H    15.91322   16.99648   -9.41287
       O    15.91974   16.54069   -8.54998
      H1    15.44521   15.73502   -8.83915
       H    10.27380   13.40193   -6.78471
       O    10.72360   14.22941   -6.93092
      H1    11.02508   14.67341   -6.14154
       H    12.38123    8.87501   -4.56043
       O    11.98875    9.01909   -3.70932
      H1    11.02813    8.97356   -3.86883
       H    13.83505    7.36579  -16.06712
       O    14.77502    7.63542  -16.13258
      H1    15.30202    6.79722  -16.07147
       H    13.01923    4.08227  -11.37339
       O    13.97649    4.31302  -11.45556
      H1    14.24597    4.05310  -12.35245
       H    19.40028   10.10584   -9.73519
       O    18.99550    9.36891  -10.26613
      H1    18.03767    9.46873  -10.10137
       H    18.18852    6.86656   -4.53623
       O    17.76839    6.45629   -3.75729
      H1    17.64089    5.51232   -3.90938
       H    10.83447   13.72303   -9.01604
       O    10.87289   13.37702   -9.95181
      H1    10.67642   12.42550   -9.90594
       H    12.84669   11.11698   -9.80949
       O    13.72043   11.44173   -9.63386
      H1    13.67313   11.64130   -8.72991
       H    17.87275   17.40716  -11.09222
       O    16.94296   17.13612  -11.24755
      H1    16.85392   17.14445  -12.20280
       H    17.28834   10.87509  -15.04531
       O    17.84640   11.62956  -15.10844
      H1    18.12744   11.50353  -15.97868
       H    12.34392    7.56221  -14.76340
       O    12.15578    7.07566  -15.53236
      H1    12.06481    6.17134  -15.22936
       H    14.24773    7.76144  -13.21013
       O    13.34570    7.99427  -12.97281
      H1    13.23820    7.81764  -12.05138
       H    19.07253    9.94498   -5.59527
       O    18.50346   10.37728   -6.23274
      H1    17.72572    9.83469   -6.30286
       H    15.60373    8.94477  -15.13679
       O    16.01041    9.50519  -14.45766
      H1    15.31357   10.12366  -14.16848
       H    12.04831   12.08609   -3.27445
       O    12.06315   11.71578   -4.17725
      H1    12.07529   10.73308   -4.06140
       H     9.30779    9.12629  -12.95135
       O     9.62656    8.23119  -13.33789
      H1     9.57019    8.26406  -14.33315
       H    10.49092   10.41712   -8.83099
       O    10.96817   10.58027   -9.67019
      H1    10.90569    9.68870  -10.09900
       H    16.29643   12.32416  -14.42848
       O    15.53152   12.88171  -14.23422
      H1    15.52844   13.10748  -13.32441
       H    14.01025   13.40457   -7.01760
       O    13.33863   12.71880   -7.04709
      H1    12.55040   13.24623   -7.24120
       H    13.19765   14.72939  -15.53590
       O    13.03295   15.69047  -15.42660
      H1    12.62662   15.98691  -16.25499
       H    18.84544   11.09921  -11.11087
       O    18.69855   12.03976  -11.08410
      H1    19.43348   12.46651  -11.57249
       H    18.59513    5.19579  -11.57075
       O    19.55029    4.96657  -11.65733
      H1    19.75922    4.68581  -12.55241
       H     9.90314    8.81773   -6.18170
       O    10.45939    8.70133   -6.97441
      H1     9.81420    8.34500   -7.63888
       H    16.12499    8.56965  -11.73026
       O    16.28263    7.80693  -12.31374
      H1    16.50022    8.16816  -13.18330
       H    12.14634   12.52350  -12.92224
       O    11.71560   13.38979  -12.99036
      H1    12.09275   13.93561  -12.32453
       H    18.75777   13.36300   -9.40450
       O    19.12245   13.65248   -8.57444
      H1    19.83818   14.24464   -8.78237
       H    10.68698    8.08100  -11.79983
       O    11.18935    8.08232  -10.92967
      H1    10.63653    7.58040  -10.30475
       H    15.58776    9.11725   -9.73280
       O    16.21893    9.74842  -10.21382
      H1    15.79775   10.64841  -10.12484
       H    14.97982   15.14184   -5.71932
       O    14.30272   15.34429   -6.39835
      H1    14.77865   15.98846   -6.90869
       H    17.12224    5.85649   -7.10820
       O    18.01889    6.17018   -6.76729
      H1    18.49541    6.63335   -7.49672
       H    12.78562   10.60478   -6.36649
       O    13.09913    9.68129   -6.60138
      H1    12.28193    9.25743   -6.84490
       H    16.08897    3.81430   -7.21361
       O    15.80047    4.75001   -7.29246
      H1    14.93246    4.73925   -7.74286
       H    11.74178   14.90290  -10.46653
       O    12.18198   15.72732  -10.24497
      H1    12.32960   16.34464  -10.95217
       H    15.89245    6.85611   -3.93539
       O    15.24632    7.53338   -4.33332
      H1    15.45969    8.32788   -3.80415
       H    13.81521    6.33703   -8.67746
       O    13.53474    5.44175   -8.78177
      H1    13.70385    5.07543   -9.65366
       H     9.97485   12.92352  -12.88053
       O     9.02580   12.62955  -12.84467
      H1     9.06206   11.72233  -12.42828
       H    16.58764    5.99399  -11.59923
       O    16.93870    5.06351  -11.58534
      H1    17.18037    4.91971  -12.52968
       H    17.84282   11.99494   -6.14435
       O    17.75004   12.94343   -6.16872
      H1    18.07743   13.24987   -7.04541

