153
frame 0 | Written by MDAnalysis XYZWriter (release 2.4.3)
       H    10.69073   11.35837  -13.49230
       O    10.88361   12.09306  -14.03018
      H1    11.80878   12.37546  -13.65297
       H    12.05520   17.46901  -15.40269
       O    12.14002   16.56281  -15.80594
      H1    11.28969   16.14033  -15.52860
       H    14.90746   14.38283  -15.52256
       O    15.06611   14.54956  -14.59803
      H1    14.47438   13.87724  -14.19261
       H     9.19171   17.38706  -12.87713
       O     8.98508   16.47154  -12.96047
      H1     9.79878   16.00392  -12.88133
       H    18.20548   15.96221  -12.83730
       O    17.89586   15.67434  -11.94583
      H1    17.55560   14.73374  -12.04665
       H    14.25591   10.99958  -10.69787
       O    14.28701   11.91301  -11.02368
      H1    13.65238   12.39969  -10.50580
       H    16.09328   12.53208  -11.36247
       O    16.99538   12.87510  -11.42597
      H1    17.38076   12.91929  -10.54958
       H    14.60277    9.50427   -8.49874
       O    14.44540    9.65948   -9.43928
      H1    13.73577    9.07544   -9.69460
       H    15.26269   12.24488   -8.99669
       O    15.64688   12.46048   -8.14197
      H1    15.58375   13.39501   -8.17375
       H    18.21250   16.60914  -16.27725
       O    18.04708   17.12821  -17.10769
      H1    17.34395   16.81643  -17.66408
       H    18.29041   15.65989  -19.31799
       O    18.12125   14.76842  -19.05664
      H1    18.73843   14.45385  -18.42100
       H    11.91485   13.82931   -9.49897
       O    12.76749   13.82160   -9.90931
      H1    12.74987   14.36566  -10.72826
       H    12.81408    9.85410  -16.53739
       O    13.02749    8.99617  -16.91662
      H1    12.15052    8.70649  -17.25328
       H    10.16841   12.56285   -8.81210
       O     9.73629   13.45686   -9.15467
      H1     9.79484   13.60544  -10.11724
       H    10.97579   10.90081   -9.27290
       O    10.92227   11.23660   -8.34181
      H1    10.05434   10.82006   -8.02716
       H    16.83980   13.84476  -15.07907
       O    17.83095   13.68312  -15.03724
      H1    18.03352   13.15876  -14.29580
       H     9.21069   19.31656  -15.00743
       O     9.88408   18.73746  -14.57499
      H1     9.62418   17.79134  -14.70980
       H    16.89425    8.03470  -16.65323
       O    17.70002    8.23635  -17.06487
      H1    18.17193    7.35883  -17.06381
       H    16.62064   16.91599  -11.95996
       O    16.15979   17.73208  -12.17724
      H1    16.55409   18.47964  -11.78433
       H     8.18353   10.57089  -16.82892
       O     8.93289   10.27070  -16.29200
      H1     9.72084   10.72560  -16.61605
       H    16.97869   11.39754  -17.40933
       O    16.02556   11.42289  -17.62584
      H1    15.67457   12.35012  -17.61301
       H    11.97270    9.95258  -11.42835
       O    11.18031   10.32988  -11.03919
      H1    10.59720    9.60057  -11.03016
       H     8.99182   14.86623  -15.20090
       O     9.69270   15.28847  -15.73481
      H1     9.18426   15.80617  -16.40759
       H    18.62915   11.39408   -7.55237
       O    18.16824   11.41955   -8.39562
      H1    17.26366   11.70949   -8.20483
       H    14.59985   10.09339  -15.32984
       O    15.07111   10.86871  -15.04444
      H1    15.44460   11.20442  -15.94629
       H     8.81743   16.59319  -18.75515
       O     9.04113   16.89364  -17.85870
      H1     9.90691   17.33096  -18.03321
       H    14.13304   18.11029  -19.47849
       O    15.03278   17.65910  -19.32504
      H1    15.01581   17.57864  -18.33034
       H    16.23518   18.38757  -13.63800
       O    16.18784   18.95437  -14.46657
      H1    17.08254   19.19367  -14.74229
       H    14.15311   11.78602  -14.01724
       O    13.66491   12.47669  -13.54924
      H1    13.76561   12.21619  -12.67496
       H    10.13510   13.64146  -18.79340
       O    10.06520   13.34998  -17.84637
      H1    10.06619   14.10484  -17.26056
       H    11.88979   17.37983  -17.28371
       O    11.63863   17.88297  -18.11076
      H1    11.53000   18.79718  -17.75352
       H    14.65241   16.88208  -12.67362
       O    13.89503   16.36307  -13.10990
      H1    14.42360   15.75387  -13.64012
       H    18.16113   18.60329  -16.39903
       O    18.29533   19.48824  -15.96994
      H1    19.18274   19.40399  -15.53953
       H    13.11731    7.87079  -11.95547
       O    13.54217    8.72444  -12.11740
      H1    14.39797    8.54740  -12.58703
       H    10.06669   13.20146  -12.22684
       O     9.27117   13.59080  -11.79617
      H1     8.76172   12.79981  -11.55450
       H    14.10925   14.90148   -9.09685
       O    15.02116   15.09163   -8.87422
      H1    15.00287   15.91245   -8.44470
       H    12.99131   18.45965  -13.94402
       O    12.68092   19.11955  -14.51981
      H1    11.71175   19.11112  -14.38769
       H     8.80263   10.18656  -14.62569
       O     8.92042    9.91093  -13.65974
      H1     8.36566   10.50804  -13.09266
       H    17.35806    8.30791   -9.89461
       O    16.74781    8.71802  -10.56647
      H1    15.97068    9.08630   -9.98030
       H    12.79304   11.37120  -18.02382
       O    12.79044   11.24717  -19.01315
      H1    13.62429   10.75523  -19.18520
       H    10.77764   18.79176  -11.31563
       O     9.83499   18.57944  -11.13432
      H1     9.34217   19.39975  -11.32401
       H    19.86916   16.11898  -14.34010
       O    18.88160   16.03514  -14.37686
      H1    18.76039   15.07699  -14.58113
       H    15.20160    6.26567  -16.97917
       O    15.07906    7.04126  -16.43992
      H1    14.45699    7.58312  -16.93656
       H    10.96232   16.70918  -11.82215
       O    11.38639   15.85882  -11.99625
      H1    11.98806   16.06511  -12.72982
       H    19.38360   11.07934  -12.41157
       O    18.49644   11.04649  -12.87660
      H1    17.95250   11.61701  -12.35322
       H    15.15872   18.21401  -15.71723
       O    14.72323   17.86240  -16.49299
      H1    14.06565   17.28312  -16.10014
       H    11.30495   12.26476  -17.24389
       O    11.72936   11.71141  -16.60464
      H1    11.29958   11.95190  -15.73781
       H    18.43339    8.70798  -15.43497
       O    18.87363    8.46417  -14.56309
      H1    18.60474    9.13442  -13.97042
       H     7.90861   13.83792  -13.35017
       O     7.80197   13.47742  -14.26492
      H1     8.59458   12.95529  -14.49710
       H    16.54801    9.18931  -12.53848
       O    15.89349    9.07191  -13.25944
      H1    15.89861    9.78728  -13.92311
       H    14.69238   14.37639  -17.84823
       O    15.54753   14.09186  -17.48684
      H1    16.12453   14.41408  -18.16212

