153
frame 8 | Written by MDAnalysis XYZWriter (release 2.4.3)
       H    17.09654   16.21493    2.20288
       O    17.16917   16.29568    1.25324
      H1    17.16211   15.36000    1.04335
       H     9.47050   16.99727    2.33080
       O     9.40074   17.62479    3.06303
      H1     9.46250   17.06408    3.81812
       H    16.52654   12.19648    4.54858
       O    16.91938   11.79404    3.77380
      H1    16.74470   10.81048    3.89792
       H    14.75989   15.78075    3.84693
       O    14.16725   15.04385    3.87680
      H1    14.65047   14.44726    4.43262
       H    18.84414   17.57997   -3.26450
       O    19.54550   16.93670   -3.43714
      H1    19.62501   16.45964   -2.58426
       H    16.76801   12.94730    2.13547
       O    16.83612   13.39250    1.28912
      H1    16.08826   13.20006    0.75211
       H    13.37625   18.90934   -0.54038
       O    14.03630   19.06225   -1.15464
      H1    14.29715   18.21699   -1.58418
       H    14.77518   17.17928    7.95694
       O    14.95967   17.72005    8.72654
      H1    15.86639   17.87497    8.91036
       H    13.03363   19.01527    3.73249
       O    13.79337   18.50401    3.46684
      H1    14.42961   19.22409    3.40079
       H    10.60758   18.31532   -2.38728
       O    11.18925   18.69491   -3.07013
      H1    12.07123   18.77430   -2.73079
       H    10.56695   17.62650   11.75748
       O    10.83485   16.96033   11.14021
      H1    11.84046   17.05269   11.02139
       H    10.27800   17.86240    9.18030
       O    10.27930   18.61224    8.64221
      H1     9.37306   18.84898    8.60954
       H    16.94495   14.89375    9.61235
       O    17.50576   15.67434    9.59527
      H1    17.63764   15.94341   10.51503
       H     8.57324   14.80759    0.01792
       O     8.12312   14.04839   -0.39606
      H1     8.62075   13.25938   -0.16962
       H    13.31515   16.86197    6.46832
       O    14.27228   16.71226    6.28379
      H1    14.37851   17.05079    5.39301
       H    13.13909   15.84195    2.22504
       O    12.52897   15.95297    1.48126
      H1    12.51641   16.92111    1.30222
       H    10.55853   13.67917    4.91055
       O    10.66509   12.76379    4.76082
      H1    11.41086   12.53775    4.17188
       H    12.38328   15.17556   -0.11598
       O    12.53737   14.59993   -0.89436
      H1    11.69204   14.69678   -1.43894
       H     6.69563   19.25245    8.58678
       O     7.43823   18.83864    8.11892
      H1     7.34685   19.09239    7.18938
       H    16.39063   17.75564    0.79184
       O    16.13826   18.69473    0.73649
      H1    15.34267   18.81121    0.21224
       H    17.03505   12.23682    9.63550
       O    16.62792   12.72773    8.91263
      H1    17.03826   12.22353    8.13870
       H    16.98444   14.48052    5.47766
       O    16.13735   14.04261    5.58735
      H1    15.89803   14.20156    6.46168
       H     8.71587   15.47452    6.32500
       O     8.90570   15.55028    5.41147
      H1     8.10329   15.39057    4.93154
       H    12.07870   19.34275    8.55573
       O    12.90071   19.66128    8.15734
      H1    13.57778   19.12721    8.49542
       H    19.57556   12.35124   -0.24671
       O    18.65591   12.00733   -0.26315
      H1    18.04096   12.39446    0.31058
       H    16.91710   18.51128    6.29010
       O    17.79292   18.27224    5.99665
      H1    18.14796   19.10247    5.65749
       H     9.35429   16.69983   -1.56186
       O     9.34807   17.57639   -1.22690
      H1     8.51371   18.00141   -1.56692
       H     6.05969   16.07712    3.52122
       O     6.44065   16.27704    4.37441
      H1     5.87967   15.90750    5.10053
       H     9.92648   14.54615   -3.14519
       O    10.06720   14.50097   -2.18678
      H1     9.23881   14.24662   -1.74440
       H    14.90881   12.04608    8.90644
       O    14.22036   11.35620    8.78858
      H1    14.48003   11.08519    7.84629
       H    11.60526   19.17906    0.95445
       O    12.35871   18.63776    0.96506
      H1    12.57304   18.75259    1.87164
       H    11.45728   18.86289    5.03427
       O    11.25049   19.43382    4.24407
      H1    10.72598   18.85617    3.64371
       H     6.14271   19.58891    2.08565
       O     6.53225   18.68276    2.08271
      H1     7.37116   18.75968    2.62344
       H    10.26640   11.44802    7.49811
       O     9.70277   11.24389    6.73680
      H1     9.99138   11.90095    6.02965
       H    11.06766   17.91792    7.08449
       O    11.47063   17.36826    6.41873
      H1    10.85633   16.72743    6.01841
       H     6.95340   18.62882   -0.30392
       O     6.86898   18.97976   -1.21333
      H1     7.24397   19.87543   -1.20364
       H    19.41809   14.15186    4.96525
       O    18.77511   14.05391    4.29681
      H1    18.80947   13.08771    4.15759
       H    10.95520   17.92554   -4.62154
       O    10.52899   17.42923   -5.38864
      H1     9.68274   17.90719   -5.47931
       H    18.39745   16.50164    8.19020
       O    19.22407   16.87427    7.75895
      H1    18.98388   17.52454    7.18027
       H    13.80155   16.54039   11.73265
       O    13.52522   17.25290   11.15214
      H1    14.15373   17.28420   10.43699
       H    12.07746   12.25021    0.93656
       O    11.37355   12.38857    0.29208
      H1    11.75024   13.14989   -0.20173
       H    17.41355   15.98552    4.05667
       O    16.73372   16.66282    4.12531
      H1    17.13683   17.44622    4.47579
       H    14.12651   13.26297   -0.69340
       O    14.55083   12.75992   -0.03466
      H1    14.28733   11.89177   -0.32381
       H    10.80397   15.68630    1.17224
       O     9.89418   15.43020    1.12612
      H1     9.93184   14.49657    1.43891
       H    17.64592   19.06063   -0.37252
       O    18.53458   19.24693   -0.70006
      H1    18.49903   19.44182   -1.66429
       H    14.83862   10.10906    3.63002
       O    13.85329   10.19430    3.59524
      H1    13.55290   10.25748    4.49701
       H    16.74426   18.79623   -3.60924
       O    17.69402   18.96447   -3.39499
      H1    17.94547   19.52868   -4.09242
       H    13.12160   13.52124    3.12955
       O    12.69923   12.69054    2.95177
      H1    13.18717   11.94135    3.32544
       H    14.68884   17.83701   -4.18502
       O    15.07538   17.48561   -3.37306
      H1    15.08904   16.50784   -3.41870
       H     7.45331   18.12245    5.02464
       O     7.28440   19.03101    5.32934
      H1     7.97424   19.61791    5.00716
       H     9.66908   12.64596    3.29732
       O     9.31761   12.89886    2.41717
      H1     9.86065   12.37836    1.76848

