153
frame 6 | Written by MDAnalysis XYZWriter (release 2.4.3)
       H    14.41690  -12.84245    3.62497
       O    13.66480  -12.74369    3.06553
      H1    13.00526  -13.43856    3.30069
       H     9.02718  -11.99486    9.55238
       O     9.22239  -12.86218    9.13777
      H1     8.61725  -13.46708    9.64427
       H    11.66351  -16.66872   12.13751
       O    12.15149  -17.03531   11.40626
      H1    11.56665  -17.64556   10.96138
       H     5.08852   -9.99971    9.49223
       O     5.37952  -10.74256   10.15098
      H1     6.30227  -10.49137   10.29066
       H     9.02064  -13.79496   13.55650
       O     9.32653  -14.57076   14.00757
      H1     8.90539  -14.58832   14.89668
       H    11.37096  -14.13836    2.52609
       O    11.61614  -14.37131    3.44452
      H1    11.48438  -15.30452    3.49113
       H     8.91097   -9.60281    7.03796
       O     8.27168   -9.54006    6.27636
      H1     8.74006   -8.99144    5.65304
       H     8.00032  -11.17584   11.55511
       O     8.04436  -10.76130   10.66197
      H1     8.56398  -10.00997   10.87959
       H     8.76134  -13.47446    7.39471
       O     8.21962  -14.04055    6.82033
      H1     8.45123  -13.80214    5.89141
       H     8.72349  -16.85193   -0.13326
       O     9.02956  -16.35407    0.67929
      H1     8.76072  -16.90716    1.41219
       H     9.67412  -20.13499    1.80060
       O    10.07814  -19.39759    1.27633
      H1    10.27012  -18.72023    1.92201
       H     5.03107  -13.66320   12.41856
       O     5.73217  -14.04793   12.92192
      H1     6.20417  -14.59636   12.29650
       H    10.15491  -16.03665   13.88937
       O    10.84366  -16.73911   13.96206
      H1    10.40798  -17.50075   13.62580
       H     4.42813  -18.67088    5.15711
       O     4.47735  -19.61914    5.46062
      H1     4.08316  -20.11767    4.66707
       H    14.07827  -13.02951   10.31045
       O    14.06714  -12.11334    9.98631
      H1    13.24007  -11.97182    9.56846
       H     8.98104  -12.91936    3.98314
       O     8.32902  -13.61983    3.99328
      H1     8.04065  -13.65323    3.04473
       H    12.62101  -11.26549    3.43807
       O    12.20202  -10.43619    3.79327
      H1    12.75441  -10.19412    4.54806
       H     5.69220  -16.51425    1.42857
       O     5.48733  -15.67939    1.85318
      H1     6.02686  -15.06991    1.36970
       H     5.25402  -12.51501    9.87049
       O     4.86188  -13.32713    9.52681
      H1     5.50236  -13.99284    9.75863
       H     8.12740  -14.75383    1.11624
       O     7.75476  -13.85789    1.25183
      H1     8.09814  -13.38544    0.51910
       H     6.91455  -17.53641   11.92112
       O     7.38853  -16.76892   12.22603
      H1     7.28320  -16.65092   13.17761
       H     6.96377  -10.32485    5.50942
       O     6.13654  -10.78937    5.29130
      H1     5.95988  -10.86612    4.32815
       H     9.45603  -10.71912    2.83607
       O     9.86458  -11.57421    3.09485
      H1    10.61412  -11.20614    3.57754
       H     4.18366  -17.47044    7.23470
       O     4.19728  -17.40150    8.23725
      H1     4.48111  -18.25876    8.56096
       H    11.26046  -11.91550   11.80582
       O    11.41438  -10.99562   12.09757
      H1    12.32463  -10.78436   12.19723
       H     9.27662  -17.36594    9.14534
       O     9.34460  -17.79793    9.97501
      H1     8.77119  -17.33711   10.51528
       H     4.52927  -15.88160    4.83524
       O     4.27230  -16.81858    5.08044
      H1     3.54681  -17.02480    4.48303
       H    15.25611  -13.03881    8.38695
       O    15.61319  -12.80983    7.49463
      H1    16.52123  -13.16768    7.46180
       H     5.34077  -12.05957    6.63836
       O     4.55178  -12.50808    6.88265
      H1     4.62659  -12.85884    7.76687
       H     7.52562  -11.59568   13.63025
       O     7.87762  -12.39373   13.12914
      H1     7.15302  -13.02916   13.12434
       H    12.59612  -14.63024    9.31362
       O    12.39145  -14.91983    8.40650
      H1    12.80471  -14.31157    7.75309
       H     2.72140  -17.93925   12.39362
       O     3.66056  -17.97589   12.26475
      H1     3.86271  -17.48630   11.48279
       H    13.15243  -16.59954    8.18739
       O    13.67769  -17.34814    7.85102
      H1    13.70388  -17.94673    8.57568
       H    13.25062  -15.56797   11.14133
       O    13.20971  -14.56260   10.94468
      H1    12.91091  -14.27165   11.78944
       H    14.71667  -18.19368    4.68342
       O    14.59491  -18.87559    5.38318
      H1    14.20932  -18.38438    6.14162
       H     5.93414  -13.82242    4.56369
       O     5.19585  -14.41204    4.29950
      H1     5.50148  -14.92999    3.54389
       H     3.11226  -16.01598    8.92711
       O     2.98035  -15.45286    9.68206
      H1     3.20148  -14.62135    9.29044
       H    10.00733  -19.13053    5.05364
       O     9.29801  -18.64523    5.44924
      H1     9.56162  -18.20369    6.22132
       H     3.54569  -12.56014    5.24668
       O     2.74287  -12.58800    4.72165
      H1     2.87624  -13.21105    4.03224
       H    13.54480  -17.90272    2.96163
       O    14.32590  -18.30764    2.72889
      H1    14.85038  -17.73559    2.12075
       H    11.43653  -16.81931    2.04316
       O    11.30956  -17.22028    2.97235
      H1    10.39484  -17.04018    3.12924
       H     7.12856  -15.26101    9.52385
       O     7.35889  -14.65712   10.23941
      H1     7.60236  -15.16158   11.04494
       H    16.35787  -15.91536    8.97091
       O    16.40891  -16.49342    8.24320
      H1    15.52974  -16.86158    8.06381
       H    10.45618  -12.25662    1.69883
       O    10.78495  -12.80653    0.95343
      H1    11.70258  -12.71270    0.82592
       H     2.64622  -13.00346   12.00772
       O     3.62568  -13.06221   11.95544
      H1     3.86240  -13.42598   11.09448
       H     6.27800  -19.30725   13.14475
       O     6.02747  -19.37190   12.22630
      H1     5.17625  -18.87895   12.26933
       H     8.81437  -17.23041    4.31958
       O     8.76865  -16.79120    3.45862
      H1     8.65828  -15.91083    3.69922
       H     9.21263  -15.71012    7.44872
       O     9.88355  -16.44545    7.60084
      H1    10.76052  -16.00450    7.66989
       H     6.87808  -15.25668    7.38620
       O     6.68194  -15.97926    8.00545
      H1     5.74121  -16.21456    7.93141
       H    11.22098  -12.23156    7.93289
       O    12.03144  -11.66458    7.97624
      H1    12.22953  -11.33430    7.10890
       H    10.17209   -9.09922    9.40347
       O    10.24704   -9.37888    8.45649
      H1    10.97874  -10.03012    8.48258

