153
frame 2 | Written by MDAnalysis XYZWriter (release 2.4.3)
       H    -3.06259    3.13900   -2.93885
       O    -3.70487    2.47524   -2.59544
      H1    -4.18993    2.81040   -1.80887
       H    -1.83378    5.34218    0.62231
       O    -1.64328    4.57221    0.07844
      H1    -1.51563    3.79513    0.61037
       H    -7.62278   -4.57221    6.39474
       O    -7.56203   -3.67772    6.01944
      H1    -7.13733   -3.74638    5.16467
       H   -10.09805   -1.67748    2.00871
       O    -9.15619   -1.67468    2.22477
      H1    -9.11551   -0.90890    2.84941
       H    -0.84818   -5.84855    6.70545
       O    -0.23481   -6.51269    6.28200
      H1    -0.47392   -7.37486    6.66845
       H    -4.66265   -1.75136   -2.54721
       O    -4.01193   -2.20585   -1.97809
      H1    -3.22402   -2.18691   -2.52520
       H    -7.65213    3.22041    7.49021
       O    -7.21155    3.93024    7.02332
      H1    -7.12793    3.61988    6.14429
       H    -1.42677   -4.73403    1.45254
       O    -1.30183   -5.20238    0.55232
      H1    -1.07161   -4.45075   -0.08755
       H    -2.02801   -3.62743    4.20439
       O    -1.90533   -2.82913    4.76469
      H1    -1.26880   -2.98537    5.48299
       H   -10.91841   -4.42139    2.95019
       O   -10.76125   -3.81645    3.67995
      H1   -10.11868   -3.14134    3.37728
       H     0.57381   -2.76485   -1.24263
       O    -0.30995   -3.19094   -1.29078
      H1    -0.37415   -3.75230   -2.07404
       H    -3.80091    0.58990    3.23274
       O    -3.81397    1.43368    2.71011
      H1    -4.45527    1.37126    1.98057
       H     2.53049   -4.05178    1.57483
       O     1.83494   -4.13880    2.23079
      H1     1.05570   -3.68198    1.85920
       H   -11.18429    0.03250    4.69829
       O   -10.62734    0.81457    4.69418
      H1    -9.69947    0.52359    4.72502
       H    -4.84906   -6.29611    6.36346
       O    -4.60969   -5.39712    6.07538
      H1    -5.18340   -5.27192    5.28386
       H    -8.96709   -2.27108    6.30427
       O    -9.64587   -1.60017    6.48040
      H1   -10.20469   -1.70389    5.68702
       H    -8.42218   -6.18510   -0.99852
       O    -8.63802   -5.36144   -0.51768
      H1    -7.90776   -5.14728    0.10865
       H    -5.09223    2.01972    0.06625
       O    -5.58583    1.62766    0.75837
      H1    -5.46437    0.68235    0.46721
       H    -4.57911    0.57739    7.02171
       O    -4.67122   -0.36811    7.19317
      H1    -5.58416   -0.46363    6.94089
       H    -1.34214    0.15463   -1.01659
       O    -0.43846    0.14688   -0.74261
      H1     0.07970    0.55391   -1.45305
       H    -8.19728    2.56110    2.69121
       O    -7.87227    1.82918    2.12865
      H1    -7.14447    2.13207    1.52792
       H     0.51640   -0.35532    4.09984
       O    -0.17907    0.06360    4.63178
      H1    -1.06490   -0.11079    4.22935
       H    -4.68114   -1.02163   -0.22060
       O    -5.42891   -1.15751    0.42775
      H1    -6.30729   -1.11288    0.00597
       H    -7.03691    0.17245   -2.66914
       O    -7.64780    0.90656   -2.35451
      H1    -8.00661    0.56762   -1.50004
       H    -0.12595   -1.89060    7.34061
       O    -1.03911   -2.14308    7.46924
      H1    -1.53185   -1.36229    7.20458
       H    -5.19981   -5.09280   -3.61134
       O    -5.28642   -4.80787   -2.68944
      H1    -4.75881   -4.00109   -2.64275
       H    -7.75469   -0.05006    5.26222
       O    -8.18804    0.09912    4.39810
      H1    -7.79697    0.79601    3.86889
       H    -4.58000    2.82454    6.68064
       O    -5.02640    2.35925    5.93987
      H1    -4.55960    2.77480    5.18661
       H    -5.48904   -0.03533   -3.97815
       O    -5.76488   -0.68231   -3.30845
      H1    -6.30799   -1.38381   -3.75317
       H    -3.11815   -2.70565   10.29985
       O    -3.02656   -3.51117    9.77902
      H1    -3.79199   -3.65114    9.26504
       H    -8.12826   -1.81935   -0.78627
       O    -8.00144   -1.05231   -0.23834
      H1    -7.99030   -1.44499    0.65968
       H    -4.05598   -0.61919    5.45498
       O    -3.50637   -0.73001    4.67408
      H1    -2.88053   -1.45974    4.77311
       H    -6.19938   -4.33697    3.15195
       O    -5.79763   -3.97499    3.96812
      H1    -5.19243   -3.36835    3.49894
       H    -2.87933   -4.87881    6.64840
       O    -2.15495   -4.90410    7.23811
      H1    -1.91431   -4.02344    7.42124
       H    -2.23553   -7.69302    4.32106
       O    -1.92637   -7.63536    3.43073
      H1    -2.72965   -7.71974    2.91327
       H    -3.19635   -5.57640    0.14389
       O    -4.13863   -5.80893   -0.02781
      H1    -4.27794   -5.57565   -0.92125
       H    -7.26283    0.74574    7.45643
       O    -7.52362   -0.06210    6.96399
      H1    -8.48794   -0.23062    6.99093
       H    -2.00364   -2.09327    1.75378
       O    -1.15028   -1.64420    1.56689
      H1    -1.31787   -1.33055    0.65454
       H    -5.75737   -2.74765    7.80005
       O    -5.34144   -3.49899    8.26222
      H1    -5.31754   -4.10827    7.51301
       H    -0.75460    1.58855    0.66241
       O    -1.11675    2.12885    1.38089
      H1    -1.87665    1.55029    1.69321
       H    -4.97693    4.35876    0.27212
       O    -4.37816    4.00784   -0.41201
      H1    -3.48433    4.09229   -0.03571
       H    -1.13142    1.90377    6.82121
       O    -0.97706    0.96394    6.91232
      H1    -0.63576    0.76205    5.99894
       H    -4.74127    4.37846    3.89825
       O    -3.99813    3.81609    4.09369
      H1    -3.99163    3.05145    3.47727
       H     0.18908    2.22208    2.55724
       O     1.05688    2.50184    2.88792
      H1     1.25296    1.91469    3.67222
       H    -4.19487   -1.54696    3.19992
       O    -4.02097   -2.22730    2.49999
      H1    -4.66065   -1.92968    1.81168
       H    -3.39764   -4.82929    3.16178
       O    -2.46769   -4.93912    3.13793
      H1    -2.27253   -5.91152    3.15068
       H    -4.81417    0.63203    8.79946
       O    -5.19335    1.41133    9.25257
      H1    -4.81533    1.57103   10.18873
       H     2.35784   -0.78897    2.45462
       O     2.08889   -0.81651    1.53860
      H1     1.15282   -0.96179    1.51095
       H    -3.76188   -0.21358   -1.76608
       O    -3.35653    0.25878   -1.04556
      H1    -3.15693    1.13336   -1.38456
       H    -9.28346    0.62776    0.06343
       O    -9.88262    1.36808   -0.03334
      H1    -9.40350    2.13253    0.25856
       H    -6.75712   -5.97454    1.36610
       O    -6.55257   -5.02095    1.47981
      H1    -5.74316   -4.84111    1.03433

