153
frame 1 | Written by MDAnalysis XYZWriter (release 2.4.3)
       H    -4.86148    4.71185   10.22715
       O    -4.81075    4.62749   11.22162
      H1    -5.24731    3.74243   11.36365
       H    -7.82792   -0.69817   12.78125
       O    -6.87067   -0.58371   12.44688
      H1    -6.30936   -1.24216   12.88394
       H   -10.56908    5.93250   13.73452
       O   -11.05736    6.07382   14.53677
      H1   -11.19534    7.02730   14.64132
       H   -13.05900    3.34436   13.15331
       O   -13.23164    2.47163   13.57922
      H1   -12.49759    2.10996   13.99620
       H    -2.21104   -1.56288   13.12714
       O    -2.58302   -1.20092   12.29803
      H1    -2.57610   -0.22666   12.38191
       H   -13.10635    3.56947   17.22548
       O   -12.22466    3.18352   17.25448
      H1   -11.87899    3.35379   18.16457
       H    -9.72529   -4.13575   15.55608
       O    -9.58449   -3.14728   15.39095
      H1    -8.75161   -2.85502   15.91961
       H    -1.82118    4.68461   13.66734
       O    -2.11001    4.58125   14.57136
      H1    -1.24979    4.28098   14.89456
       H    -1.19346   -1.24946   18.40569
       O    -0.45009   -1.61385   17.87649
      H1    -0.85037   -2.21883   17.22654
       H    -5.12902    4.58484   18.15023
       O    -4.13963    4.58179   18.08254
      H1    -4.02431    5.21457   17.33385
       H    -1.64161    5.17595   10.84128
       O    -2.00430    4.32344   10.97925
      H1    -2.97283    4.51772   11.05589
       H     0.10460   -0.18731   14.38068
       O    -0.23949    0.36020   13.65804
      H1    -0.62965    1.18909   14.07529
       H    -7.91547    2.51941   12.99146
       O    -8.83366    2.76881   12.98184
      H1    -9.20362    2.27726   12.21747
       H    -8.04155    2.94237   15.53438
       O    -7.21697    3.49276   15.62525
      H1    -6.98809    3.93475   14.85799
       H    -0.53762    1.82346   16.45454
       O    -0.65778    2.74676   16.20059
      H1    -1.06876    3.14705   16.99659
       H    -7.17880    8.99234   18.39885
       O    -7.19964    9.96186   18.45811
      H1    -7.31555   10.14693   19.36369
       H    -8.71795    5.74637   12.16308
       O    -9.54658    5.31197   12.43676
      H1    -9.46266    4.36792   12.64206
       H    -0.46196   -3.19872   13.96572
       O    -1.16625   -2.60227   14.26304
      H1    -1.71961   -3.09175   14.80793
       H    -3.33544    8.24557   12.30433
       O    -3.63005    7.69590   11.51985
      H1    -4.02927    7.00465   12.00903
       H    -9.50405   -0.97025   19.06584
       O   -10.31032   -0.49288   18.82657
      H1   -10.90851   -0.99930   18.31014
       H    -8.70414    9.07618   15.62335
       O    -8.57649    8.18414   15.96686
      H1    -9.38502    8.07773   16.48974
       H     1.68739    0.08107   16.37456
       O     0.72359    0.18015   16.33123
      H1     0.38983   -0.39268   17.02441
       H    -7.22972    7.22260   15.46936
       O    -6.41816    7.03096   14.95225
      H1    -5.66715    7.01225   15.54889
       H    -8.00002   -1.69337   17.44368
       O    -8.05472   -1.30200   16.56352
      H1    -7.13824   -1.19919   16.28101
       H    -4.13890   -1.82699   12.96561
       O    -4.79141   -2.21677   13.62382
      H1    -5.11968   -3.09048   13.35314
       H    -7.75679    7.24528   17.45066
       O    -7.13138    7.12207   18.17641
      H1    -7.18846    6.17370   18.32833
       H    -5.81903    2.69941   16.21349
       O    -5.07539    2.06385   16.43691
      H1    -4.58926    2.40613   17.22453
       H    -3.30708    5.86988   15.63325
       O    -3.89241    6.31830   16.22368
      H1    -3.56672    7.16690   16.46023
       H    -2.47271    3.45152   18.42853
       O    -1.73000    2.84936   18.67230
      H1    -1.13565    3.33274   19.23829
       H    -6.19264    8.95512   14.38675
       O    -5.96704    9.75170   13.98281
      H1    -5.03571    9.72202   13.74788
       H   -12.21358   -1.31664   16.21582
       O   -11.65669   -1.83510   16.76252
      H1   -11.06185   -2.25803   16.14111
       H    -6.66506    5.84827   13.62159
       O    -6.73767    5.02817   13.06456
      H1    -5.99492    5.13337   12.48100
       H     1.18188    2.66219   16.39962
       O     2.16386    2.80395   16.18229
      H1     2.75632    2.85267   16.97912
       H    -9.72138    4.73936   10.81440
       O    -9.74960    4.64534    9.84935
      H1    -9.67652    5.58724    9.60137
       H    -3.16214   -4.51859   15.94025
       O    -2.56655   -3.84592   16.20222
      H1    -3.02043   -3.24809   16.83888
       H    -9.87088   -1.03654   14.25074
       O    -9.39646   -0.49217   13.69777
      H1    -9.23365    0.35764   14.09022
       H    -7.39869    0.82122   18.92578
       O    -7.95575    1.62715   18.97610
      H1    -8.42487    1.64004   18.15905
       H    -9.92733    1.68176   16.08000
       O    -9.09041    1.77480   16.55670
      H1    -8.72727    0.86374   16.55958
       H    -5.00208   -1.24971   15.05873
       O    -5.41652   -0.70093   15.76371
      H1    -5.15622    0.22811   15.71242
       H   -11.27232    0.65055   10.95296
       O   -10.44167    0.90936   11.41427
      H1   -10.82486    0.93957   12.30206
       H    -3.39077   -1.20788   18.32454
       O    -3.78496   -1.90561   17.76106
      H1    -4.24456   -1.36076   17.06743
       H   -10.51634    5.52821   17.68691
       O   -10.21499    6.30780   17.24127
      H1   -10.37035    6.06209   16.30951
       H    -2.75970    2.98509   14.41413
       O    -3.30377    2.16200   14.22069
      H1    -3.92412    2.22149   15.04230
       H    -9.07762   -0.03417   10.60509
       O    -8.41634   -0.22785    9.92541
      H1    -7.59415    0.11233   10.19259
       H    -7.27290    3.39403   18.68126
       O    -6.91887    4.23718   18.28501
      H1    -6.95465    4.08334   17.32450
       H    -4.40407    2.05963   12.63867
       O    -5.13948    1.76951   12.09943
      H1    -5.50501    0.95643   12.36715
       H    -0.57678    3.62830   11.92864
       O     0.18984    3.72308   12.52675
      H1     0.75711    2.91242   12.37041
       H    -5.10291    1.96428    8.70196
       O    -5.74156    1.91885    9.41232
      H1    -5.23256    1.91580   10.26571
       H    -3.86320    9.81083   17.49175
       O    -3.47515    8.89641   17.49083
      H1    -2.77537    9.03092   16.83491
       H    -3.85549    7.59021   18.88668
       O    -3.81481    7.31420   19.83445
      H1    -4.46786    7.95211   20.18826
       H   -11.63707    2.02446   15.84361
       O   -11.38247    1.44016   15.15113
      H1   -11.94700    0.64281   15.04995

