153
frame 1 | Written by MDAnalysis XYZWriter (release 2.4.3)
       H    -2.38794   18.08684   -3.45813
       O    -2.57694   17.81131   -2.54773
      H1    -2.23548   18.55270   -2.02853
       H    -0.13931   15.64382   -2.67453
       O    -0.84662   15.75213   -2.00094
      H1    -1.48056   16.42963   -2.29427
       H     1.89799    9.92808   -1.73347
       O     2.15840    8.97683   -1.80426
      H1     2.82839    8.85206   -1.12909
       H     0.37445   12.77044   -7.77826
       O     1.27579   12.58532   -8.12938
      H1     1.56439   13.46178   -8.39962
       H    -5.52579    9.71118   -8.27543
       O    -6.29563   10.15363   -7.90566
      H1    -7.06853    9.89073   -8.41041
       H     0.86596    8.12619   -3.68913
       O     1.10178    7.73805   -4.56520
      H1     0.61972    8.31922   -5.17870
       H     3.67977   14.40070   -8.50032
       O     3.16718   14.36052   -9.31271
      H1     2.33324   14.80039   -9.15176
       H    -3.48143   10.05382    0.10994
       O    -3.39936    9.21067   -0.41433
      H1    -4.30258    8.93363   -0.69495
       H    -3.16002    7.28964   -6.59639
       O    -3.01872    8.22897   -6.43434
      H1    -3.34338    8.57798   -7.29588
       H    -3.52436    9.18346   -4.79151
       O    -3.61733    9.86283   -4.15474
      H1    -4.31147    9.48753   -3.65981
       H    -7.29458   11.10823   -4.89474
       O    -7.91003   11.78480   -5.22313
      H1    -8.34329   11.54862   -6.09275
       H     4.01536    7.18957   -6.03911
       O     3.28869    7.76899   -6.26685
      H1     2.69262    7.85344   -5.48447
       H    -2.26249   18.95298   -5.40788
       O    -1.54896   18.47571   -4.87835
      H1    -0.86830   19.13336   -4.65847
       H     0.48148   11.92154   -0.63748
       O     1.30895   11.53819   -1.02071
      H1     1.88651   12.26895   -1.12116
       H    -0.73951    6.13291   -2.70027
       O    -1.00592    5.19128   -2.76233
      H1    -1.09744    4.94225   -1.82655
       H     2.35113   16.95350   -1.11078
       O     2.40989   17.18988   -2.05195
      H1     2.46712   18.17275   -2.04993
       H     0.33127   15.58353   -7.81371
       O     0.80468   15.71590   -8.66982
      H1     1.09671   16.64307   -8.74730
       H    -3.25325    8.71125   -9.47479
       O    -3.56532    9.30315   -8.81040
      H1    -3.05248   10.15551   -8.89996
       H     1.20739    4.68799   -5.72991
       O     1.86840    5.11796   -5.15881
      H1     1.68974    6.04584   -5.02838
       H    -1.48469   12.85911   -6.16157
       O    -1.12468   12.97592   -7.05391
      H1    -1.59117   12.42005   -7.67674
       H    -2.13116   10.30569   -1.64521
       O    -1.68540   10.58306   -2.42938
      H1    -2.33549   10.33362   -3.13066
       H     0.16719   11.70309  -11.23454
       O    -0.76613   11.54022  -11.49396
      H1    -0.87083   12.19605  -12.23777
       H    -4.41194   15.81213   -5.41387
       O    -5.07633   16.50663   -5.54185
      H1    -5.17667   16.85995   -4.59494
       H    -4.30348   11.66264   -4.74665
       O    -4.67847   12.52374   -4.90005
      H1    -5.30740   12.36874   -5.66879
       H     0.08821   13.88539    0.46073
       O    -0.50616   13.26348    0.00974
      H1    -0.73432   13.84539   -0.75421
       H     1.93129   11.51151   -6.52353
       O     2.09042   11.43305   -5.52379
      H1     1.63827   12.21676   -5.14662
       H     1.24692   10.41964   -9.96801
       O     1.84964   11.00619  -10.43892
      H1     1.92295   11.79837   -9.93596
       H    -1.28128   17.11451    0.65927
       O    -0.54791   17.32361    0.08407
      H1    -0.55317   16.66766   -0.61992
       H    -0.26744   10.30375   -5.99815
       O    -0.23373    9.45921   -6.41996
      H1    -1.14260    9.12526   -6.32658
       H     4.00507   16.43255   -2.55251
       O     4.79407   15.99984   -2.92105
      H1     4.95044   15.13763   -2.43914
       H    -4.32029   12.57798    0.84212
       O    -3.69506   12.12241    0.23732
      H1    -2.86639   12.62524    0.33577
       H     5.77393    7.47777   -2.82653
       O     4.81187    7.28392   -2.79223
      H1     4.44826    8.01538   -3.25639
       H    -0.81291    7.78130    1.59890
       O    -0.61294    7.18055    0.88837
      H1    -0.55395    7.65193    0.04671
       H     1.83817   11.91525    2.15738
       O     2.46290   11.44649    1.56748
      H1     1.99322   11.44254    0.66039
       H    -5.27293   12.20162   -3.11114
       O    -5.67550   11.88919   -2.30712
      H1    -4.91609   11.86383   -1.70805
       H     1.72492   14.11588   -3.36931
       O     0.94411   14.09466   -3.94446
      H1     1.09846   14.72450   -4.59919
       H     4.15061    8.98760   -5.45922
       O     4.31901    9.58257   -4.69246
      H1     3.66856   10.32949   -4.86890
       H    -6.89578   13.41337   -7.79806
       O    -6.04082   13.05474   -7.63115
      H1    -6.17564   12.09823   -7.93235
       H     3.97209   14.87858   -4.48249
       O     4.03572   14.73490   -5.45162
      H1     3.98054   13.82055   -5.73188
       H    -1.10418   16.60471   -5.90140
       O    -0.61087   15.81702   -6.27873
      H1    -1.25929   15.11439   -6.41085
       H     5.97350   13.24925   -7.73387
       O     5.35678   12.84209   -7.14765
      H1     5.27513   11.95480   -7.50983
       H    -3.64862   14.41592   -8.13700
       O    -3.49888   14.17595   -9.05155
      H1    -2.87530   14.85191   -9.32384
       H    -0.27666   12.77313   -4.06846
       O    -0.80746   12.06789   -4.56719
      H1    -1.18633   11.47944   -3.83408
       H    -3.49383   13.60812   -5.26689
       O    -2.79352   14.33679   -5.36792
      H1    -2.21011   14.34946   -4.57990
       H     2.95430   14.31217   -1.16304
       O     2.97701   13.52241   -1.73516
      H1     3.91702   13.42662   -2.03029
       H    -6.34638    8.90906   -2.83684
       O    -5.59504    8.72248   -2.25921
      H1    -5.40712    7.80659   -2.52755
       H     0.13513    9.05607   -8.13380
       O     0.41183    8.98927   -9.06749
      H1     1.29347    8.57742   -9.03177
       H    -1.73364   11.70724  -10.10401
       O    -2.26144   11.77751   -9.25886
      H1    -2.70802   12.59472   -9.39309
       H     0.42705    8.35102   -1.96306
       O    -0.54114    8.14586   -1.93883
      H1    -1.01713    9.00659   -2.07655
       H    -7.34800    7.75945   -5.18124
       O    -6.45807    8.14138   -5.11104
      H1    -6.23069    8.43356   -6.02609
       H    -0.67124   15.74838   -9.82663
       O    -1.46922   16.09548  -10.21886
      H1    -1.69546   16.89174   -9.69567

