153
frame 2 | Written by MDAnalysis XYZWriter (release 2.4.3)
       H     9.27838  -11.88856   10.90547
       O     9.85508  -12.63860   10.64183
      H1     9.28329  -13.39927   10.57055
       H     6.04182  -10.58610    8.44659
       O     5.72968  -10.69971    9.32721
      H1     6.48270  -10.44123    9.84626
       H     8.63426   -9.47018    6.93237
       O     8.09517   -9.40304    6.07495
      H1     8.60947  -10.04931    5.47574
       H     8.02038  -10.73865   12.40353
       O     8.06803  -10.49716   11.46162
      H1     8.42846   -9.61684   11.61955
       H     0.22578  -12.65105    5.28582
       O    -0.06074  -11.79044    5.54197
      H1     0.73829  -11.32872    5.87549
       H     4.76416   -6.69263    3.97783
       O     4.99777   -6.22173    4.74234
      H1     4.57401   -5.41921    4.75969
       H     6.45624   -6.52627    6.00206
       O     7.39746   -6.74684    6.16886
      H1     7.31028   -7.74068    6.04002
       H     9.47671  -14.08818    5.95495
       O    10.30646  -14.13020    6.36940
      H1    10.97115  -14.38967    5.68871
       H     0.66999  -12.26809   11.58412
       O     0.29534  -12.89874   10.93764
      H1     0.13761  -12.39508   10.11907
       H     5.41220   -3.81671    8.15913
       O     5.87723   -4.10808    8.97755
      H1     5.24582   -4.48401    9.58227
       H     5.29987  -13.51860   11.68208
       O     5.75331  -14.33794   11.92512
      H1     6.42199  -14.45923   11.21527
       H     5.50863   -9.25141    2.04919
       O     5.89877  -10.04654    1.66591
      H1     6.85308   -9.89994    1.65163
       H     5.72157  -11.67377    2.28222
       O     5.89731  -12.62125    2.58160
      H1     5.68694  -13.11213    1.77934
       H    -0.89470   -9.93874   11.18800
       O    -0.48566   -9.08184   11.00874
      H1     0.40360   -9.40234   10.74669
       H    10.25057   -8.61728    4.46058
       O    10.67920   -7.74484    4.43066
      H1    10.86549   -7.60308    3.51996
       H     4.41068  -11.90712    8.35816
       O     3.76592  -12.46784    7.90304
      H1     4.39085  -13.14466    7.40937
       H     8.06161   -4.78011    8.71641
       O     8.79229   -5.18692    8.20276
      H1     8.34893   -5.75949    7.56484
       H     5.07101   -9.24625    5.79246
       O     5.39627  -10.05256    6.23534
      H1     6.36182   -9.93636    6.19435
       H     7.20728   -5.81461   12.88063
       O     7.62595   -5.90894   12.04981
      H1     7.99119   -6.77629   12.09192
       H     9.28310  -10.39963    3.17510
       O     9.47775  -10.70228    4.09104
      H1    10.48787  -10.77349    4.09453
       H     4.16016  -17.40004    7.77703
       O     4.47540  -17.22438    8.68166
      H1     3.70908  -16.79099    9.11863
       H    10.29872  -12.22875   12.66500
       O    10.93008  -11.66969   13.06463
      H1    11.65725  -11.61155   12.35028
       H     4.28648  -10.76996   14.77701
       O     4.42922  -10.45128   13.84893
      H1     3.55245  -10.70029   13.54162
       H     9.21354   -8.69848   13.38066
       O     9.00015   -8.16244   12.59480
      H1     9.87257   -7.91674   12.32638
       H     0.81380  -11.16215    8.45248
       O    -0.08178  -11.35315    8.54029
      H1    -0.38397  -11.70006    7.67058
       H     1.14022  -11.42444   13.73017
       O     1.94522  -11.47419   13.17179
      H1     2.29397  -12.33582   13.48225
       H     3.76439   -6.95333   10.05034
       O     3.13171   -7.45388    9.59406
      H1     2.28310   -7.07949    9.78624
       H     4.20870  -11.28773    5.05288
       O     3.83095  -11.98580    4.47956
      H1     4.52064  -12.33051    3.89451
       H     8.31521   -5.47044    3.86968
       O     9.21893   -5.39160    4.15130
      H1     9.48516   -6.22394    4.64644
       H     7.70435  -12.77096   13.62475
       O     8.17820  -13.51297   13.25809
      H1     7.54043  -14.09992   12.76335
       H     3.40307   -7.36085    5.71293
       O     3.24962   -8.32759    5.71759
      H1     2.97009   -8.62234    4.83319
       H     4.61412   -5.15039   11.45008
       O     5.04620   -5.99468   11.20902
      H1     6.00716   -5.91358   11.25511
       H     2.04403  -10.25579   11.13149
       O     1.90224   -9.97912   10.21032
      H1     2.57013   -9.29100    9.97103
       H     4.42652   -7.23009   12.83238
       O     4.35687   -7.37870   13.79601
      H1     4.08925   -8.28622   13.94366
       H     4.67093  -11.62065   10.58821
       O     4.22060  -12.17365   11.23513
      H1     3.64781  -12.75397   10.67747
       H     2.53585  -11.03026    7.20486
       O     1.87372  -10.33478    7.00894
      H1     2.44152   -9.54495    6.83246
       H     7.92129  -13.81583    4.95372
       O     7.58853  -14.23571    5.78208
      H1     6.99680  -14.84361    5.32048
       H     1.83649   -9.61941    3.07276
       O     2.81576   -9.66550    3.18190
      H1     2.97845  -10.56629    3.59733
       H     2.58630  -15.53589   10.27210
       O     2.38844  -16.49356   10.16020
      H1     2.38036  -17.03859   10.94699
       H     5.63654  -13.01632   13.97961
       O     5.30634  -13.38312   14.79861
      H1     4.40708  -13.10253   14.92205
       H     3.44562  -13.78718    4.61206
       O     3.22810  -14.72750    4.60143
      H1     3.09782  -14.86014    3.61452
       H     9.90266   -6.65456    8.47981
       O    10.76111   -7.12591    8.41847
      H1    11.00376   -7.22115    9.37544
       H     7.77720  -10.71304   14.99738
       O     7.29896  -10.93332   14.18779
      H1     6.40434  -10.51965   14.29532
       H     1.21562   -5.77400    7.00837
       O     2.03896   -5.54943    7.52364
      H1     2.44068   -6.38836    7.79788
       H     6.89608  -14.38260    9.35013
       O     7.57596  -14.58320   10.09803
      H1     7.53929  -15.52888   10.17297
       H     8.86143  -12.35255    3.73302
       O     8.86873  -13.30842    3.54004
      H1     8.30049  -13.37252    2.75723
       H     1.74588  -13.42368   10.28963
       O     2.58412  -13.85761    9.92172
      H1     2.98777  -13.37221    9.16427
       H     9.95338  -15.81733    6.96228
       O    10.12334  -16.76327    6.95822
      H1    11.05994  -16.86833    7.22196
       H     6.51030  -14.02770    7.40191
       O     5.90099  -14.12903    8.17210
      H1     5.57928  -15.04691    8.20334
       H    10.49081  -12.42851    9.07824
       O    11.12067  -12.32636    8.34643
      H1    10.89503  -12.96634    7.64903
       H    10.25259   -8.98627    8.30419
       O     9.69788   -9.80741    8.23712
      H1    10.34098  -10.54150    8.04461

