153
frame 2 | Written by MDAnalysis XYZWriter (release 2.4.3)
       H     9.49510  -18.99765   -3.28147
       O     8.79336  -19.34995   -3.86401
      H1     8.45350  -20.02382   -3.29016
       H    10.19223  -13.14905    0.37177
       O     9.24487  -12.90501    0.53747
      H1     9.14828  -12.14092   -0.01915
       H    11.06149  -14.01108    3.53510
       O    11.77213  -14.41027    4.09271
      H1    11.78520  -15.34818    3.85289
       H    13.02162  -10.28447    0.13560
       O    12.16846   -9.89436   -0.18369
      H1    11.88948  -10.60064   -0.80724
       H    13.13586  -16.24009   -2.83023
       O    13.29836  -15.86674   -3.66807
      H1    14.19663  -16.18324   -3.80994
       H     3.20235  -11.16543   -5.63843
       O     2.25214  -11.15505   -5.82284
      H1     1.85698  -11.65464   -5.11043
       H     9.05416  -17.74179    1.60952
       O     9.31915  -16.81243    1.79708
      H1     9.25260  -16.78909    2.73106
       H     2.79869  -15.18037    1.38735
       O     2.75478  -15.73137    2.15329
      H1     3.49882  -16.31855    2.10416
       H     8.39106  -14.06730   -0.30873
       O     7.89049  -14.54412   -0.95692
      H1     8.01423  -14.05254   -1.81889
       H     7.82122  -11.13227   -1.16903
       O     8.67835  -10.78843   -0.90094
      H1     9.24459  -10.94884   -1.67747
       H     9.71299  -18.18591   -0.60839
       O     9.08179  -18.60232   -0.05820
      H1     8.25856  -18.49796   -0.54661
       H     6.55220  -13.92579   -5.45925
       O     5.84118  -13.64875   -4.91026
      H1     5.14676  -14.27472   -5.14652
       H     5.50863   -9.25141    2.04919
       O     5.89877  -10.04654    1.66591
      H1     6.85308   -9.89994    1.65163
       H     3.10116   -9.96822    1.39306
       O     2.94718  -10.47146    0.60111
      H1     3.00590   -9.87757   -0.16831
       H     5.72157  -11.67377    2.28222
       O     5.89731  -12.62125    2.58160
      H1     5.68694  -13.11213    1.77934
       H     7.62596  -17.89662   -4.05808
       O     7.37160  -16.96947   -4.03749
      H1     8.10719  -16.44946   -4.36723
       H     3.92746  -13.36297   -0.78938
       O     4.05190  -13.42069    0.16329
      H1     3.59110  -12.62338    0.43960
       H     8.56108   -8.59322    1.50326
       O     8.62327   -9.59487    1.61853
      H1     8.80800   -9.92415    0.71027
       H    13.87838  -18.41544   -2.21329
       O    13.67709  -17.67497   -1.64189
      H1    13.54288  -17.90154   -0.72215
       H    12.86479  -13.05849    0.44250
       O    11.98986  -13.09619   -0.01020
      H1    11.82256  -13.99190   -0.37256
       H     5.28790  -18.14422    1.62320
       O     4.80325  -17.36666    1.64056
      H1     5.57465  -16.79795    1.86874
       H     7.66917  -15.87273    1.63136
       O     6.81126  -15.37663    1.56417
      H1     6.83373  -15.07109    0.69572
       H     6.57829  -14.53872   -8.82686
       O     6.99311  -15.28464   -8.34085
      H1     7.45683  -15.82443   -9.03841
       H    10.67729  -10.43193   -5.97382
       O    10.90380   -9.50114   -5.84822
      H1    10.38763   -9.05985   -6.51689
       H     5.20801  -10.37465   -5.07315
       O     5.06167  -11.03031   -5.72473
      H1     5.43499  -11.84930   -5.47770
       H     9.28310  -10.39963    3.17510
       O     9.47775  -10.70228    4.09104
      H1    10.48787  -10.77349    4.09453
       H     6.38508  -15.87491   -1.30692
       O     5.84811  -16.76372   -1.48658
      H1     6.22017  -17.05205   -2.30509
       H     9.10415   -7.15249   -0.71805
       O     8.67780   -7.40092   -1.48773
      H1     9.39559   -7.64032   -2.07108
       H     9.81937   -7.30655   -4.22947
       O    10.02864   -8.06924   -3.71819
      H1     9.60781   -8.81483   -4.17079
       H    10.49924  -17.60804   -5.32248
       O    10.49231  -16.96778   -4.61798
      H1    11.27445  -16.46137   -4.69328
       H     8.33028  -11.34494   -7.28799
       O     9.21208  -11.56172   -7.01265
      H1     9.66109  -11.85781   -7.87038
       H    12.21944  -14.61067   -6.22762
       O    12.34933  -15.41567   -6.66391
      H1    11.67463  -15.55340   -7.33878
       H    11.26723  -18.77505   -2.25514
       O    10.67847  -18.02738   -2.28480
      H1    10.50684  -17.74899   -3.21984
       H    12.11231  -14.39005   -4.27932
       O    11.99947  -13.47967   -4.65671
      H1    12.79580  -13.00115   -4.47164
       H    10.80665  -16.56200   -1.15912
       O    10.90343  -15.68681   -0.77730
      H1     9.94455  -15.49472   -0.45898
       H     2.59531  -17.28304   -2.39052
       O     3.04206  -16.38820   -2.21720
      H1     3.94079  -16.50767   -1.99369
       H     6.06873  -10.69639   -7.20565
       O     6.62980  -10.98787   -7.94515
      H1     6.69687  -10.24234   -8.52586
       H     0.77177  -13.86989   -1.32861
       O     1.11639  -14.59566   -0.71955
      H1     1.78330  -15.12504   -1.23385
       H     7.92129  -13.81583    4.95372
       O     7.58853  -14.23571    5.78208
      H1     6.99680  -14.84361    5.32048
       H     3.18809  -15.18043   -3.58254
       O     3.32402  -14.71348   -4.38275
      H1     2.55405  -14.13351   -4.42902
       H     1.58892  -17.42957    0.21668
       O     2.39824  -18.02412   -0.01788
      H1     3.21363  -17.46168    0.13760
       H     3.38607  -16.24474   -7.06504
       O     2.68753  -16.27709   -6.41969
      H1     3.05233  -15.78308   -5.70960
       H     4.42711  -13.38292   -3.10642
       O     4.29820  -12.67856   -2.42531
      H1     4.96063  -12.00606   -2.48932
       H     8.86143  -12.35255    3.73302
       O     8.86873  -13.30842    3.54004
      H1     8.30049  -13.37252    2.75723
       H     6.27455   -8.15477   -4.91034
       O     5.51249   -8.43584   -4.31560
      H1     5.78844   -8.25541   -3.37565
       H     7.00244   -8.40507   -1.56535
       O     6.07793   -8.49687   -1.60413
      H1     5.89685   -9.41395   -1.33519
       H     8.04039  -14.54962   -6.92151
       O     8.33934  -14.15298   -6.10501
      H1     8.67718  -13.22246   -6.42404
       H    11.43734  -12.48652   -1.60457
       O    10.86442  -12.20531   -2.29555
      H1    11.11077  -12.65472   -3.11158
       H     5.93759  -17.74263   -8.07306
       O     6.29680  -17.95700   -7.18053
      H1     6.77513  -17.18953   -6.89718
       H     8.78868  -10.99900   -5.17431
       O     8.65264  -10.97832   -4.21046
      H1     9.01198  -11.83643   -3.99649
       H     5.53150  -10.72168    0.05942
       O     5.79679  -11.05166   -0.78880
      H1     5.26250  -11.84592   -0.78641

