153
frame 2 | Written by MDAnalysis XYZWriter (release 2.4.3)
       H   -15.22506   12.14813    1.67056
       O   -15.98535   12.50688    2.22353
      H1   -16.11318   13.39791    1.91837
       H   -10.35119   10.39746    1.07138
       O   -11.10311   10.42884    1.66307
      H1   -11.73392   11.05016    1.32001
       H   -17.40358   11.78895   -0.96196
       O   -16.60126   11.51649   -1.34005
      H1   -16.58953   12.03389   -2.11638
       H   -11.03463   17.84134   -0.91247
       O   -11.62818   17.53886   -0.20533
      H1   -11.14476   16.97829    0.38171
       H   -18.54499   12.61954    5.14461
       O   -18.52933   12.24167    6.02631
      H1   -18.87041   12.94763    6.59427
       H   -11.86298    9.15030   -2.02551
       O   -10.98510    8.65716   -2.03451
      H1   -11.12173    8.02584   -1.32540
       H   -17.18896   17.23071    4.53702
       O   -17.92700   17.40413    5.16388
      H1   -17.52816   17.76033    5.96372
       H   -14.68570    8.89789   -2.02106
       O   -14.22033    8.67753   -2.87387
      H1   -14.39233    9.33632   -3.47132
       H   -16.40421    9.23503    8.02482
       O   -16.85534    9.27948    7.12063
      H1   -16.76873   10.23892    6.94197
       H   -17.76126   18.61984    8.14498
       O   -17.21102   17.91735    7.63509
      H1   -17.37800   17.08495    8.13753
       H   -13.44582   16.90263   -0.41374
       O   -14.18623   16.28803   -0.25140
      H1   -14.75782   16.42908   -1.02780
       H   -18.95502   16.65526   -4.51072
       O   -18.70843   17.31842   -5.21158
      H1   -19.36761   17.96901   -4.96984
       H   -13.25111   16.43398    8.14037
       O   -12.94370   17.24128    8.50812
      H1   -12.32891   16.98762    9.18990
       H   -14.54322   19.45489    3.52295
       O   -15.12013   19.32284    2.74973
      H1   -15.55127   18.43460    2.78178
       H   -19.62321    7.20309    5.33564
       O   -19.10874    6.41340    4.95250
      H1   -18.68381    6.95101    4.19659
       H   -11.94878   19.17367    2.92393
       O   -11.14053   18.85530    2.58320
      H1   -10.59348   18.79520    3.37930
       H   -13.77543   16.74657   -4.73656
       O   -13.59328   17.58034   -4.27362
      H1   -13.89899   17.40248   -3.35942
       H   -15.39708   18.97111   -1.33951
       O   -15.64309   18.26124   -1.91117
      H1   -15.91252   18.68990   -2.76345
       H   -17.80217   13.17246    3.15929
       O   -18.72581   13.36474    3.37732
      H1   -19.05769   14.03482    2.81398
       H   -15.53372   15.25015    0.59475
       O   -16.35834   15.09616    1.07204
      H1   -17.01235   15.16831    0.40596
       H   -18.62149   17.81465    0.10849
       O   -18.34917   17.72545   -0.84941
      H1   -17.38547   17.69048   -0.79947
       H   -13.65408   12.21073    0.20814
       O   -13.81201   11.54889    0.83812
      H1   -14.38385   10.96423    0.33702
       H   -14.97098   13.58457   -3.16800
       O   -14.30837   13.00688   -2.87351
      H1   -13.90241   13.32252   -2.05448
       H   -13.99259   14.45513    7.04758
       O   -14.33116   15.35816    7.13440
      H1   -15.14215   15.15452    7.63142
       H   -17.07803    7.25206   -3.89272
       O   -17.91243    7.79765   -3.77795
      H1   -17.82044    8.16080   -2.87956
       H   -13.50946   13.76270   10.05506
       O   -14.06099   13.35804    9.34905
      H1   -14.75749   12.75641    9.74209
       H   -15.34736   11.41072   -3.97578
       O   -15.14702   10.77025   -4.72446
      H1   -16.02524   10.39353   -5.04770
       H   -12.40983    7.54626    4.09174
       O   -12.07530    6.63744    4.18580
      H1   -12.63734    6.25120    4.96000
       H   -10.01045   11.96646   -0.60644
       O   -10.33422   12.85025   -0.40760
      H1   -10.15527   13.23010   -1.29552
       H   -18.31833    7.61387    2.10409
       O   -17.85099    7.77180    2.93558
      H1   -16.95855    7.39212    2.84793
       H   -11.43956   12.57510   -4.66719
       O   -11.71146   13.23805   -4.04044
      H1   -12.65935   13.19384   -3.90430
       H   -14.73648    8.58840    0.21452
       O   -15.10494    9.08771   -0.49327
      H1   -16.08544    9.04632   -0.54558
       H   -13.00230    9.15230    1.57258
       O   -13.50243    8.32286    1.39816
      H1   -12.77166    7.79256    1.03022
       H   -17.47135   17.75928    2.30513
       O   -16.71689   17.29844    2.72417
      H1   -16.64479   16.44883    2.20963
       H   -17.58198   11.04956    2.39320
       O   -18.39749   10.56820    2.53386
      H1   -18.07763    9.65569    2.68920
       H    -9.59271   13.06418    3.19327
       O    -9.06651   13.74630    2.68255
      H1    -9.66214   14.20052    2.08106
       H   -16.18266   15.16433   -4.00596
       O   -16.34958   14.93415   -3.13232
      H1   -17.01749   14.15833   -3.19422
       H   -18.34429   12.38324   -3.99048
       O   -18.06920   12.95569   -3.24522
      H1   -18.75528   12.83996   -2.57252
       H   -10.33607   11.16263    3.29461
       O   -10.42869   11.90720    3.98258
      H1   -10.21950   11.49861    4.81582
       H   -12.11994   13.54235   -0.41363
       O   -13.01518   13.81979   -0.67052
      H1   -13.17267   14.73359   -0.40278
       H   -18.24344   19.38698   -3.33764
       O   -18.76772   19.74545   -2.63155
      H1   -18.71025   19.08091   -1.93118
       H   -15.31179   12.27344    7.06551
       O   -16.20832   12.42669    7.46789
      H1   -16.82300   12.45526    6.68081
       H   -14.60994    7.10251    2.61784
       O   -15.30011    6.54881    3.02306
      H1   -15.37793    5.77753    2.45795
       H   -13.18919    9.81256    4.41889
       O   -12.36422    9.29290    4.46052
      H1   -11.80341    9.63001    3.76414
       H   -17.16130   14.57142    8.51566
       O   -16.78237   15.43539    8.79299
      H1   -16.00733   15.25526    9.34405
       H   -12.56603   12.25014    6.08932
       O   -13.33230   11.90113    6.51416
      H1   -12.90386   11.38692    7.17976
       H   -18.76293   15.99492   -0.90466
       O   -19.15064   15.14967   -0.64288
      H1   -19.62091   15.39337    0.13611
       H   -18.21866    8.22053   -0.35830
       O   -17.79051    8.88750   -0.89788
      H1   -18.00474    9.69243   -0.52449
       H    -9.70539   15.30176    0.19811
       O    -9.95303   15.69508    1.01491
      H1    -9.30348   16.40704    1.09248
       H   -12.02874   13.65978    7.65029
       O   -11.05930   13.47557    7.73445
      H1   -10.55794   14.29049    7.52375
       H   -16.29599   11.71210   10.66165
       O   -15.93385   11.39798    9.86294
      H1   -16.37200   11.77158    9.06930

