153
frame 7 | Written by MDAnalysis XYZWriter (release 2.4.3)
       H     5.62795  -19.14222  -15.00783
       O     4.78599  -19.26275  -14.48460
      H1     4.46766  -20.07408  -14.90828
       H     0.22219  -18.03371  -15.56083
       O     1.07603  -18.41949  -15.49779
      H1     1.00409  -19.09777  -14.88043
       H    11.18066  -19.47455  -17.14221
       O    10.62207  -19.32582  -16.30249
      H1    10.40322  -18.36885  -16.30928
       H     5.67194  -17.40016  -16.40602
       O     6.01618  -16.52288  -16.45048
      H1     6.80548  -16.38187  -15.94252
       H     5.68530  -13.89967  -12.62076
       O     4.69972  -13.73853  -12.57346
      H1     4.72284  -12.82636  -12.94279
       H     3.57118  -17.54172  -17.21090
       O     4.00131  -18.42000  -17.02712
      H1     3.96193  -18.64303  -16.12068
       H     4.05249  -11.29174  -15.09324
       O     3.73149  -11.36167  -16.03119
      H1     2.86405  -11.76067  -15.96811
       H    15.85767  -13.50759  -15.72154
       O    15.37430  -14.11811  -15.15390
      H1    16.06699  -14.76768  -14.96235
       H     6.90764  -17.53674   -9.08625
       O     6.82756  -16.65499   -9.54518
      H1     6.12086  -16.79015  -10.20908
       H     9.72538  -13.61819  -18.53442
       O     9.55777  -12.93503  -17.79477
      H1     8.64220  -12.78161  -17.96977
       H    12.66900  -17.39605  -15.06912
       O    13.11158  -17.75074  -15.81358
      H1    13.46867  -18.64363  -15.63737
       H     9.31341  -10.11113  -14.01814
       O     9.77565   -9.75841  -14.82074
      H1     9.14156   -9.26274  -15.29218
       H     1.42843  -15.80506  -15.37406
       O     1.97475  -15.15076  -15.86983
      H1     2.85356  -15.26770  -15.44099
       H     2.44854  -15.73412  -17.29842
       O     3.09718  -16.08379  -17.94606
      H1     3.54379  -15.26128  -18.20981
       H     2.40260  -18.24032  -13.28959
       O     2.51167  -17.46343  -12.77278
      H1     3.11139  -16.93600  -13.30931
       H    17.07940  -17.34082  -13.84761
       O    16.93112  -16.41140  -14.04320
      H1    17.26200  -15.80769  -13.38667
       H    12.80508   -9.53129  -17.39284
       O    13.42592   -9.24508  -18.16458
      H1    13.19917   -8.32575  -18.19856
       H    13.83472  -12.19653  -19.92654
       O    14.34152  -11.66022  -19.24372
      H1    13.77328  -10.85561  -19.13677
       H    10.68322  -13.22112  -16.56614
       O    11.46656  -13.33563  -15.97896
      H1    11.88505  -14.16909  -16.23246
       H    13.04808  -18.78473  -11.02735
       O    13.44972  -18.35691  -11.81329
      H1    12.86220  -18.58722  -12.57163
       H     5.43758  -19.95378  -12.71355
       O     5.36229  -19.66604  -11.80336
      H1     5.10236  -18.75248  -11.88961
       H    -0.39184  -16.47186  -18.55737
       O    -0.54491  -15.72807  -19.13416
      H1     0.17174  -15.84692  -19.82323
       H     1.29843  -13.36007  -15.93076
       O     1.04340  -12.40327  -16.12445
      H1     0.15135  -12.44507  -16.47927
       H     7.56576  -18.23044  -16.60397
       O     7.28231  -19.14697  -16.33933
      H1     7.71521  -19.66216  -17.07075
       H     9.16765  -15.12680  -10.95042
       O     8.54279  -14.50874  -10.57571
      H1     8.10157  -14.96052   -9.85989
       H     7.09846  -19.55492  -10.19677
       O     6.93260  -19.41423   -9.29803
      H1     5.96826  -19.43382   -9.19480
       H     0.98734  -16.56270  -13.23089
       O     0.21799  -16.11052  -13.66329
      H1     0.08691  -15.23425  -13.25809
       H     4.95009  -15.84143  -15.39356
       O     4.31286  -15.62483  -14.65506
      H1     4.69130  -14.84500  -14.29326
       H     3.60305  -12.49579  -18.89189
       O     4.35002  -12.78414  -18.33627
      H1     4.24755  -12.33141  -17.49895
       H     4.08776  -16.73320  -11.24705
       O     4.99497  -16.74569  -11.52526
      H1     4.92433  -16.16809  -12.29982
       H     1.64555  -11.87147  -17.84777
       O     1.86637  -11.73728  -18.82560
      H1     2.11528  -10.79308  -18.88051
       H    13.91294  -15.55506  -18.82089
       O    13.85858  -15.82585  -19.73020
      H1    14.78135  -15.88370  -20.03275
       H    17.47634  -17.09263  -18.31239
       O    16.82302  -17.67522  -18.66976
      H1    16.39091  -18.12028  -17.93923
       H     5.52912  -10.44468  -13.26670
       O     4.89774  -11.13340  -13.41944
      H1     3.99250  -10.91665  -13.12800
       H     7.19721   -8.93455  -17.19278
       O     7.75380   -9.04469  -18.00740
      H1     8.55701   -8.57631  -17.77777
       H    10.56162  -11.63243  -11.23960
       O    10.60202  -11.17016  -12.08242
      H1    11.28789  -11.56745  -12.62563
       H    12.52194  -12.82408  -14.07137
       O    13.08841  -13.10724  -13.33375
      H1    13.90217  -13.37668  -13.73114
       H    11.20828  -16.13056  -16.38346
       O    10.31082  -16.48476  -16.25646
      H1     9.91554  -16.63700  -17.18863
       H     9.74777  -18.90023   -9.42334
       O     9.99413  -18.72884  -10.39041
      H1    10.29919  -19.57003  -10.75525
       H     7.13070  -10.90635  -18.49121
       O     6.89311  -11.72935  -18.87296
      H1     5.94096  -11.84018  -18.83643
       H    15.08510  -11.21416  -16.07089
       O    15.64040  -11.80061  -16.60947
      H1    15.31151  -11.77175  -17.46772
       H    11.74346  -16.18775  -13.09873
       O    12.45740  -15.88720  -13.66482
      H1    12.42796  -14.94701  -13.44371
       H     7.55888  -14.65960  -13.62027
       O     7.21562  -14.14816  -12.89079
      H1     7.72510  -14.40061  -12.10555
       H     8.28149  -18.48410  -13.17390
       O     8.13070  -17.62482  -12.75871
      H1     7.51641  -17.76566  -12.04491
       H    11.55444  -10.12355  -15.48901
       O    12.36744  -10.53196  -15.93118
      H1    12.10967  -11.50817  -16.17357
       H    15.58682  -16.15279  -12.74246
       O    15.16951  -16.06889  -11.89381
      H1    14.51889  -16.80479  -11.85654
       H     8.24114  -11.48979  -12.72859
       O     7.78963  -11.15084  -13.47365
      H1     7.96566  -11.73583  -14.17237
       H    14.13271  -14.75228  -16.49167
       O    13.36402  -15.25135  -16.85479
      H1    13.50827  -16.17555  -16.62955
       H     8.81147  -18.22637  -18.64076
       O     8.38173  -17.41517  -18.22173
      H1     7.65684  -17.34604  -18.85085
       H     8.66388  -15.73546  -15.53356
       O     7.90991  -15.61982  -14.91835
      H1     7.86748  -16.33658  -14.28474
       H    10.65307  -16.81174  -10.81376
       O    10.29529  -16.33828  -11.58332
      H1     9.65069  -16.94395  -11.94031

