153
frame 0 | Written by MDAnalysis XYZWriter (release 2.4.3)
       H     8.64190   18.13880   12.99511
       O     7.91282   18.38596   12.46666
      H1     7.40960   17.57219   12.46353
       H     9.75804   15.78397    2.23196
       O     8.91737   16.15095    2.12646
      H1     8.21543   15.45651    2.34494
       H    13.26905   17.00140   13.67948
       O    13.15474   16.63694   12.79705
      H1    12.19657   16.65355   12.76524
       H     2.48917   18.95917    1.01263
       O     2.56815   18.03354    1.29810
      H1     1.74751   17.61972    1.08005
       H     5.59963   18.43647   15.15522
       O     5.29625   19.32712   14.87697
      H1     4.60077   19.40318   15.55278
       H     4.85110   13.80754   14.23763
       O     5.61674   13.27890   13.89164
      H1     5.43848   13.01815   12.88800
       H     9.30681   12.32942    8.13736
       O     9.89117   13.01825    7.80515
      H1     9.95867   13.03024    6.81543
       H     6.99239   13.25622    4.34321
       O     7.14410   12.31128    4.63994
      H1     6.27904   11.91776    4.74828
       H     0.70659   19.15664   12.79603
       O     1.18842   19.46248   13.58755
      H1     1.56531   18.60922   13.93143
       H    13.05577   19.17860    1.99662
       O    12.91830   19.99650    2.56311
      H1    12.15766   19.88639    3.13530
       H     3.93804   19.19062    5.50450
       O     3.92253   18.29973    5.93147
      H1     4.81294   17.95671    5.72213
       H    -1.55813   14.82963    7.61560
       O    -1.63971   15.78054    7.50679
      H1    -2.45509   15.87080    6.88162
       H     2.79954   18.24977    7.22585
       O     2.33292   18.05834    8.06910
      H1     1.40125   18.48379    7.87331
       H    12.90398   15.63123    7.15531
       O    12.93807   14.73045    7.54261
      H1    13.71150   14.76483    8.18959
       H     3.02455   16.82206   13.09988
       O     2.30639   16.63750   13.74274
      H1     1.76733   16.04697   13.15517
       H     4.66533   17.91126   12.13570
       O     4.35260   16.97695   11.94036
      H1     4.92078   16.54698   11.27221
       H     6.31509   15.45680   12.83970
       O     7.20018   15.78975   13.05679
      H1     7.89457   15.14800   12.83282
       H     7.37115   18.96900    8.26867
       O     6.50965   19.18830    7.88417
      H1     5.95197   19.46686    8.58715
       H     2.29970   15.05689    7.97582
       O     3.05299   15.48061    8.48138
      H1     2.81521   16.41251    8.34539
       H     8.56749   17.08693   11.34767
       O     8.75400   16.59750   10.46352
      H1     9.64419   16.27344   10.57528
       H     2.19048   17.65355    3.50247
       O     2.14571   16.99085    4.24264
      H1     2.76605   17.27190    4.89048
       H     9.45622   18.15354    9.11063
       O     9.41602   18.50412    8.17808
      H1     9.64828   19.47238    8.34042
       H     1.49630   13.23546    5.98895
       O     1.76324   13.45403    6.88936
      H1     1.97788   12.57396    7.26320
       H     4.23052   17.93274   17.64747
       O     3.70662   18.23137   16.89144
      H1     3.89919   17.57863   16.22029
       H     9.98163   13.86970   14.28244
       O     9.22941   13.56408   13.70479
      H1     8.42740   13.60029   14.22460
       H    12.04278   17.14270    6.34735
       O    12.98964   17.20164    6.18142
      H1    13.12961   18.00655    5.66457
       H     9.70610   14.44827    5.07406
       O    10.25064   13.67458    4.93420
      H1    11.13897   13.84192    4.56813
       H     8.46784   19.11072    2.39337
       O     8.10166   18.80524    3.20672
      H1     8.43668   17.86994    3.12233
       H     8.38108   15.25900    9.19036
       O     7.95570   14.68988    8.52963
      H1     8.64126   14.03091    8.26600
       H     5.06989   13.62584   10.82745
       O     5.30452   12.80635   11.25132
      H1     4.49848   12.27594   11.11953
       H     8.30979   15.24055    6.61357
       O     8.58656   15.62851    5.78694
      H1     7.91177   16.29570    5.59189
       H    13.96599   17.76444   11.25527
       O    14.06754   17.93383   10.31674
      H1    14.64242   17.23704   10.02306
       H    -0.31935   14.62194   12.27236
       O     0.59554   14.81435   12.44685
      H1     0.84416   13.97402   12.86449
       H     6.21067   14.98882    2.45377
       O     6.98999   14.35434    2.49936
      H1     7.14072   13.85613    1.61856
       H     1.77319   14.28928   11.26505
       O     2.49518   14.07930   10.64274
      H1     2.45302   14.75975    9.96190
       H     7.14008   11.76558   10.83866
       O     7.64662   10.94118   10.89937
      H1     8.51463   11.24808   11.05119
       H     4.98148   11.70570    6.27467
       O     4.92845   12.15456    7.14924
      H1     5.73905   11.89197    7.60933
       H     6.09087   18.52494    1.13722
       O     5.64227   18.52015    1.99931
      H1     6.37110   18.73244    2.62973
       H    -0.22062   19.01101    9.03838
       O    -0.05364   19.14295    8.09757
      H1    -0.73458   18.67247    7.57174
       H    10.16760   17.91697    6.66681
       O    10.42455   17.64946    5.79798
      H1     9.79898   16.89388    5.62514
       H     5.04698   16.98292    2.65306
       O     4.78228   16.06362    2.93081
      H1     3.89969   16.20042    3.30864
       H     6.79075   16.35324   14.41484
       O     6.50014   16.83103   15.27732
      H1     5.92500   16.18678   15.72820
       H     5.92107   15.44212    9.05155
       O     5.53632   15.36384    9.91709
      H1     4.56241   15.21907    9.75621
       H     5.10348   14.01607    6.86147
       O     5.08172   14.90283    6.56690
      H1     4.40878   15.32382    7.11426
       H     7.67628   18.12342   15.99927
       O     8.30620   18.65102   16.45388
      H1     7.84866   19.45436   16.78083
       H    11.61574   15.10506    9.26049
       O    11.50032   15.75235   10.00868
      H1    12.32493   16.25855    9.84400
       H     0.66605   17.16200    5.57672
       O    -0.32681   17.02327    5.66854
      H1    -0.52751   16.49307    6.42805
       H     3.04714   15.43985   14.67092
       O     3.56450   14.90403   15.26768
      H1     3.05040   14.77658   16.06741
       H     2.47250   12.34633   10.72089
       O     2.88401   11.44960   10.57646
      H1     2.88676   10.97839   11.46712
       H     6.00618   16.33851    6.02307
       O     6.37468   17.17939    5.66516
      H1     6.55867   17.61905    6.52085
       H    10.74006   18.10192   12.36414
       O    10.61487   17.74555   13.26394
      H1    10.59635   18.53456   13.85469

