153
frame 11 | Written by MDAnalysis XYZWriter (release 2.4.3)
       H     8.88386   -9.12350  -14.06750
       O     8.11310   -9.28327  -13.46528
      H1     8.02627  -10.27517  -13.47308
       H     3.48823   -4.49722   -5.24959
       O     4.23700   -4.96167   -5.66507
      H1     3.90304   -5.86308   -5.87204
       H     6.33278   -5.12474  -13.08929
       O     7.11583   -4.97996  -12.59989
      H1     7.13531   -5.50663  -11.77281
       H     8.65265   -4.53389  -15.16860
       O     8.04370   -3.96524  -15.71964
      H1     7.36813   -3.58221  -15.18908
       H    10.31562   -9.14108  -10.61118
       O    11.09579   -8.86362  -10.16837
      H1    11.63625   -8.65157  -10.90218
       H    13.37317   -7.63513   -8.28345
       O    13.39360   -8.30554   -7.57398
      H1    14.35360   -8.44795   -7.38999
       H     7.74986   -8.66614  -11.76235
       O     7.58354   -8.29764  -10.89583
      H1     8.16610   -7.56477  -10.71026
       H     3.52224   -4.41973   -9.44254
       O     3.00561   -4.56298  -10.20233
      H1     3.58955   -4.99524  -10.85213
       H    12.35534   -0.24929  -10.65925
       O    11.61449    0.28265  -10.34578
      H1    11.63172    1.14843  -10.79317
       H     3.52326   -9.71523   -9.81743
       O     3.51491   -8.89052  -10.31303
      H1     4.28490   -8.33724  -10.11966
       H    15.81686   -5.73730  -13.46955
       O    15.16339   -5.96242  -14.14446
      H1    14.32309   -6.07472  -13.75018
       H     4.67734   -4.00636   -7.26724
       O     4.74286   -3.49524   -8.13444
      H1     5.61636   -3.74108   -8.45975
       H     9.93069    0.72469   -7.24884
       O     9.93739   -0.02188   -7.97615
      H1     9.41153    0.26053   -8.72452
       H     9.22254   -8.68768  -16.13172
       O     9.85044   -8.49172  -15.41746
      H1     9.79548   -7.53768  -15.16883
       H     7.79733   -6.96987   -7.43060
       O     7.07261   -6.34931   -7.60478
      H1     7.47470   -5.76984   -8.29358
       H    11.03192   -3.99633  -11.03814
       O    10.88937   -4.48282  -11.83788
      H1    11.02136   -3.86510  -12.51760
       H    12.17289  -10.50863   -9.87426
       O    12.67297  -11.26279   -9.50255
      H1    12.76221  -11.91322  -10.18636
       H    11.66595   -8.60551  -15.69019
       O    12.55130   -8.29605  -15.50194
      H1    12.88638   -8.05632  -16.33092
       H    10.39204   -1.99764  -13.04627
       O    10.93660   -2.52323  -13.69111
      H1    11.83018   -2.23659  -13.61505
       H     6.54026   -3.28060  -13.02824
       O     6.54716   -2.57319  -13.69647
      H1     5.67956   -2.64168  -14.22743
       H     9.62990   -4.65030   -6.55594
       O    10.43599   -5.18604   -6.45539
      H1    10.23087   -5.98120   -6.86631
       H     7.85227   -2.95435   -8.63304
       O     7.44449   -3.50123   -9.31062
      H1     7.30171   -2.82190   -9.99914
       H    13.43935   -1.81301  -12.27459
       O    13.23136   -1.65398  -11.30159
      H1    12.69886   -2.37654  -10.92529
       H     4.29965   -8.19734   -6.71152
       O     3.54734   -7.70831   -6.50394
      H1     2.79773   -8.06897   -7.04737
       H     8.82027  -11.09259   -8.54496
       O     9.35096  -11.87002   -8.44132
      H1     8.87931  -12.56111   -9.01849
       H     2.71643   -1.37712  -10.90240
       O     3.14396   -2.06779  -11.38383
      H1     3.19245   -2.87872  -10.91181
       H    13.07560   -7.08798   -5.43307
       O    12.15333   -7.33723   -5.35568
      H1    12.05202   -7.89456   -6.13644
       H     6.75066   -8.76883  -14.76940
       O     6.12344   -8.30371  -15.32629
      H1     5.34642   -8.08518  -14.76026
       H     9.82259   -8.41376   -7.29869
       O     9.53010   -7.62834   -7.77267
      H1     9.98225   -7.59718   -8.59466
       H    12.08657   -4.93855   -7.73948
       O    12.86300   -4.94037   -8.27260
      H1    13.41860   -4.25825   -7.82163
       H     6.48749   -5.53296   -2.72178
       O     5.85958   -4.98846   -3.24443
      H1     6.31677   -4.91590   -4.09313
       H    12.82738   -2.60007   -6.31697
       O    13.54390   -2.67765   -6.91117
      H1    13.74233   -1.84336   -7.41263
       H    10.28178   -0.05924  -11.40981
       O     9.66696   -0.18849  -12.20057
      H1     8.83610   -0.55345  -11.85087
       H     6.57599  -11.30421   -8.82401
       O     6.93555  -10.47647   -8.69495
      H1     6.80283   -9.98973   -9.50972
       H     8.95958   -1.46694   -7.72765
       O     8.68148   -2.32104   -7.39579
      H1     8.33446   -2.11380   -6.51586
       H    11.70085   -3.45673   -8.78296
       O    11.16567   -2.88721   -9.39992
      H1    11.22363   -2.00441   -8.97319
       H    10.60089   -2.76399  -15.37194
       O    10.50732   -3.01372  -16.26858
      H1     9.62432   -3.40001  -16.38527
       H    12.47459   -6.33205  -13.20817
       O    12.28622   -5.96807  -14.10286
      H1    12.52344   -6.77503  -14.55546
       H     3.25878   -7.42382  -14.69320
       O     3.96564   -7.33345  -14.00532
      H1     3.48864   -7.19502  -13.09883
       H     4.39680   -4.35834  -14.39078
       O     5.09247   -5.02778  -14.52377
      H1     4.61194   -5.84307  -14.53136
       H     4.66248   -1.51368   -7.20952
       O     4.90704   -0.83900   -6.60382
      H1     4.06058   -0.55853   -6.14037
       H    10.26533   -5.58007  -13.59813
       O     9.39176   -5.70225  -14.12294
      H1     8.80749   -5.16874  -13.54492
       H    13.72850   -8.53271  -11.77661
       O    13.25131   -7.64815  -11.90948
      H1    13.72588   -7.07628  -11.21611
       H    11.86631   -9.60609   -7.51819
       O    11.06177   -9.93559   -7.16956
      H1    10.80450  -10.63751   -7.82812
       H     6.64576   -0.78638  -10.77058
       O     7.29474   -1.30862  -11.22550
      H1     6.96514   -1.53490  -12.07173
       H    11.76629   -3.15231   -4.03075
       O    12.10752   -3.70377   -4.74138
      H1    11.40122   -4.25466   -5.00487
       H     9.43521   -5.58685  -11.03825
       O     8.86778   -5.78396  -10.24169
      H1     8.58639   -4.87752   -9.98662
       H     6.46507   -9.74235   -7.29513
       O     6.20102   -9.27115   -6.46920
      H1     6.96310   -9.18216   -5.96941
       H     5.69691   -6.79165   -8.88870
       O     5.45568   -6.91245   -9.81144
      H1     6.16317   -7.36411  -10.28097
       H     7.24209   -5.16948   -6.10172
       O     7.73575   -4.75221   -5.35556
      H1     7.27784   -3.97244   -5.08462
       H    10.54050   -7.48744   -4.52643
       O     9.77975   -7.07016   -4.09044
      H1     9.48935   -6.33700   -4.63733

