153
frame 11 | Written by MDAnalysis XYZWriter (release 2.4.3)
       H   -13.02573  -11.35076    9.05868
       O   -13.52313  -11.74721    8.31998
      H1   -13.91554  -10.97974    7.95677
       H    -5.46360  -16.48100   11.50023
       O    -4.97400  -16.51625   10.66126
      H1    -4.90903  -17.46138   10.39843
       H   -12.89018  -12.01171   12.35513
       O   -12.90959  -12.91246   11.92830
      H1   -13.54750  -13.42246   12.37986
       H    -5.32221  -16.95393   13.34800
       O    -5.64200  -16.07988   13.40485
      H1    -4.88984  -15.48466   13.38461
       H    -5.50864  -16.50673    6.36820
       O    -5.91015  -17.20487    5.86951
      H1    -5.50285  -17.15480    4.97478
       H    -8.36338  -17.88158    3.92725
       O    -7.57952  -18.39224    3.69738
      H1    -7.71341  -19.24197    4.17926
       H    -9.49405  -12.26284    7.48121
       O    -9.54127  -12.37966    6.53613
      H1   -10.51123  -12.57585    6.41382
       H    -9.69469  -11.99856   10.00349
       O    -8.92750  -11.48414    9.79735
      H1    -8.23240  -12.13763    9.73996
       H    -5.18763  -19.21203   13.89924
       O    -5.26604  -18.84830   12.99360
      H1    -6.14330  -19.19241   12.61610
       H   -10.96845  -12.68948    0.32921
       O   -11.47815  -13.01201    1.12100
      H1   -10.67823  -13.09972    1.66072
       H    -8.06663  -16.30771    7.04053
       O    -9.00207  -16.67530    6.97990
      H1    -9.38856  -16.17175    7.69296
       H   -10.55803  -18.90919   -0.43699
       O   -11.31051  -18.66335    0.08236
      H1   -10.95528  -18.23251    0.80640
       H   -15.49607  -17.98512    3.93220
       O   -15.21813  -17.99615    3.02365
      H1   -15.12315  -18.93436    2.77279
       H   -13.18100  -19.73532    5.65987
       O   -12.71560  -19.08207    6.16128
      H1   -12.00819  -18.73605    5.64105
       H   -14.76853  -12.77541    9.08264
       O   -15.56157  -13.27982    9.11055
      H1   -15.70641  -13.57594    9.99412
       H    -1.87694  -15.51915    9.14814
       O    -1.86870  -14.73624    8.57511
      H1    -2.54729  -14.54416    7.87029
       H    -4.12964  -13.16421   12.24060
       O    -4.07410  -14.14746   12.37825
      H1    -3.93877  -14.40975   11.44280
       H   -11.99081  -16.12136   10.85027
       O   -12.53004  -16.47986   11.60557
      H1   -12.15975  -16.07032   12.38196
       H   -14.15315  -13.06002    1.62907
       O   -14.46337  -13.70214    2.24273
      H1   -13.69112  -14.02221    2.73051
       H   -11.23430  -16.24641    2.93954
       O   -10.32638  -16.44229    2.82471
      H1    -9.93264  -15.93225    2.08645
       H   -10.63826  -17.74911    4.45533
       O   -10.29570  -18.19563    5.23521
      H1   -10.00607  -17.39599    5.79318
       H    -6.15591  -17.50159    3.21092
       O    -5.34107  -16.95626    3.07395
      H1    -5.51436  -16.05365    3.21713
       H    -8.58645  -16.58784   10.79726
       O    -9.08591  -17.38881   10.82098
      H1    -8.88467  -17.91310   10.05447
       H   -13.22301  -18.00829    7.58602
       O   -13.49427  -17.36104    8.26029
      H1   -13.98012  -17.95100    8.93303
       H    -2.47607  -17.44088    4.55209
       O    -2.80624  -18.08017    5.13853
      H1    -2.15803  -18.10668    5.85837
       H    -9.64077  -10.91079    5.35911
       O    -9.65699  -10.13815    4.70430
      H1    -8.89052  -10.17281    4.15362
       H    -3.93324  -18.89951    8.82505
       O    -3.88111  -18.91609    9.78892
      H1    -3.07683  -18.40907    9.97369
       H    -3.67241  -12.95075    7.16649
       O    -3.69996  -13.85153    6.74415
      H1    -4.36254  -14.33819    7.21590
       H    -7.66157  -14.71438    3.67105
       O    -7.00203  -14.85538    4.32793
      H1    -7.10092  -15.69979    4.72104
       H   -10.18201  -14.62280   13.48202
       O   -10.67796  -15.41636   13.48411
      H1   -10.08769  -16.06712   14.04447
       H    -9.14968  -19.44189    8.64336
       O    -8.42817  -18.78511    8.60301
      H1    -8.71469  -18.17944    7.88557
       H   -11.10570  -14.37414    9.56548
       O   -11.08608  -13.50695    9.93835
      H1   -11.78839  -13.46551   10.59168
       H    -3.41931  -18.08744    0.60109
       O    -4.20803  -17.43924    0.60448
      H1    -4.52908  -17.47469    1.51786
       H    -9.17173  -14.39485   10.92668
       O    -8.27984  -14.67570   11.00887
      H1    -7.98259  -14.33151   11.83068
       H    -5.30558  -15.45919    0.47979
       O    -5.45394  -14.59441    0.14916
      H1    -6.17165  -14.21714    0.73750
       H   -15.64157  -18.53186    9.13862
       O   -15.04666  -18.60923    9.89397
      H1   -15.15792  -19.44498   10.32269
       H    -7.05588  -19.86369   10.89840
       O    -7.44843  -19.46389   11.74171
      H1    -8.08862  -18.82751   11.32261
       H   -14.64658  -16.14812    8.09507
       O   -15.24920  -15.44722    7.68888
      H1   -15.01798  -14.65523    8.15409
       H    -6.00073  -14.42696    8.40206
       O    -5.73431  -15.28900    8.10811
      H1    -5.47772  -15.62890    8.96695
       H    -7.63525  -12.94236    1.57713
       O    -8.03173  -13.76992    1.85834
      H1    -8.25897  -14.25650    1.04960
       H   -17.27568  -18.23704    5.41956
       O   -16.59429  -17.54910    5.21232
      H1   -15.95882  -17.66253    5.89482
       H    -8.89385  -16.68463   -0.08745
       O    -9.12449  -15.88866    0.37257
      H1    -9.90712  -15.57692   -0.03939
       H   -12.43276  -12.44689    6.96245
       O   -12.02011  -12.76231    6.16383
      H1   -12.42705  -13.63927    6.08784
       H    -2.66450  -13.94775    3.59797
       O    -2.22956  -14.35018    4.41419
      H1    -2.90864  -14.16043    5.12784
       H   -14.66545  -13.82072    5.17637
       O   -13.99175  -14.46873    5.45541
      H1   -14.41866  -14.88080    6.27029
       H    -6.67050  -12.77160    5.33332
       O    -6.96444  -12.32210    6.11446
      H1    -7.89050  -12.61040    6.19296
       H   -10.44479  -16.82163    9.77672
       O   -11.04212  -16.22434    9.24159
      H1   -11.68904  -16.72643    8.73184
       H    -5.45483  -12.31825    9.00363
       O    -6.35834  -12.62485    8.83642
      H1    -6.50726  -12.39414    7.89688
       H    -4.61968  -18.74245    6.58758
       O    -4.56173  -19.45258    7.24953
      H1    -3.85341  -20.04532    6.90325
       H   -12.62907  -18.75669   13.35179
       O   -12.46504  -19.17540   12.45985
      H1   -12.37374  -18.39028   11.96278
       H   -13.75473  -16.79353    3.21905
       O   -13.06864  -16.26056    3.53564
      H1   -13.33692  -15.85082    4.36115

