153
frame 10 | Written by MDAnalysis XYZWriter (release 2.4.3)
       H   -13.77356  -11.85183    8.50996
       O   -14.00138  -12.13816    7.61833
      H1   -14.46595  -11.36293    7.30582
       H   -12.16761  -12.33249   13.13571
       O   -12.32590  -13.18129   12.62498
      H1   -13.17774  -13.57844   12.89377
       H   -17.64020   -9.81291   11.34148
       O   -17.90594  -10.72062   11.56624
      H1   -18.85614  -10.65774   11.84545
       H   -12.04533   -9.06249   18.39943
       O   -12.92191   -8.97355   18.83233
      H1   -13.07667   -8.04825   18.65584
       H    -7.77163   -7.93658    8.72701
       O    -8.67630   -8.12894    8.41918
      H1    -8.87369   -9.08148    8.67620
       H   -14.26045   -9.32467   15.33062
       O   -14.48569  -10.30931   15.24904
      H1   -14.41423  -10.60248   16.14897
       H   -13.29001   -7.04346   10.24221
       O   -14.12753   -7.47435   10.00134
      H1   -14.46760   -7.75309   10.82794
       H   -16.14227  -13.87783   18.79609
       O   -16.41666  -13.31456   18.04723
      H1   -15.56556  -12.88803   17.81314
       H   -11.12034  -15.18574   19.89171
       O   -10.80406  -14.51294   19.23564
      H1   -10.66166  -13.63278   19.70900
       H   -10.20287   -8.23842   17.48413
       O   -10.73194   -8.85570   16.93713
      H1   -10.37432   -8.76414   15.99423
       H   -15.55721  -18.04229   11.69801
       O   -16.26645  -17.72589   12.23926
      H1   -15.98480  -17.63668   13.14780
       H    -9.06383  -14.35987   18.06343
       O    -8.52675  -14.65050   17.37933
      H1    -7.97955  -13.85257   17.23972
       H   -14.09516  -11.76105   18.69477
       O   -13.94626  -11.93530   17.77505
      H1   -13.24954  -12.55471   17.66365
       H    -9.33673  -11.31079    9.43224
       O    -8.53784  -10.75429    9.59159
      H1    -7.98837  -11.16244    8.87309
       H    -8.45741  -10.60800   11.48365
       O    -8.02485  -10.43114   12.28694
      H1    -7.08682  -10.53794   12.06562
       H   -11.18531   -8.92632   11.39509
       O   -11.33347   -9.91144   11.47024
      H1   -12.20623  -10.00956   11.05978
       H   -17.35907  -10.77541   14.17849
       O   -16.89699   -9.93039   14.38011
      H1   -16.10109  -10.26536   14.88913
       H    -7.77454  -11.59687   13.50885
       O    -7.68283  -12.19449   14.35030
      H1    -8.57444  -12.22271   14.69617
       H    -9.92172  -14.69619    6.77901
       O    -9.79409  -15.58234    7.12835
      H1   -10.34003  -15.74081    7.92699
       H   -17.17675   -8.34664   13.84365
       O   -17.36035   -7.43617   13.63589
      H1   -17.51348   -7.37780   12.63881
       H   -13.04252  -10.56038   14.14821
       O   -12.18343  -10.83072   13.82938
      H1   -12.00228  -10.30684   13.01917
       H   -11.95835  -14.51941   16.23379
       O   -12.34147  -14.20889   17.08340
      H1   -11.67779  -14.30603   17.77537
       H   -15.28349  -13.13017    8.02604
       O   -15.91388  -13.76214    8.39966
      H1   -15.42070  -14.24878    9.12296
       H   -14.86880  -12.41616   12.53832
       O   -15.28485  -11.84138   11.88292
      H1   -16.17268  -11.61161   12.14113
       H   -11.90029  -16.21790   11.42283
       O   -12.03922  -16.74797   12.18983
      H1   -11.81502  -16.19345   12.96996
       H    -8.55549  -15.74897   15.68038
       O    -8.94072  -16.10006   14.88960
      H1    -8.21534  -16.00233   14.26247
       H   -15.33770  -14.44315   12.50180
       O   -14.79046  -14.02795   13.17760
      H1   -14.91903  -14.41351   14.04448
       H    -8.37511  -15.94275   10.46797
       O    -8.16578  -16.80549   10.17546
      H1    -8.58294  -16.98380    9.35085
       H   -13.08118  -17.28585    7.87526
       O   -13.79704  -16.97246    8.43513
      H1   -14.07123  -17.86811    8.81831
       H   -11.09074   -6.63135   10.01234
       O   -11.24111   -7.18058   10.78423
      H1   -11.21003   -6.64854   11.59444
       H   -14.48102  -10.49839   10.62874
       O   -13.80397  -10.34346    9.96281
      H1   -13.73174   -9.37568    9.78436
       H   -10.76510  -11.37052   14.81190
       O   -10.18189  -11.95416   15.32386
      H1   -10.20419  -11.63907   16.26903
       H   -11.48851  -14.30004   13.83236
       O   -11.46161  -15.03783   14.42844
      H1   -10.50228  -15.09804   14.62759
       H    -6.18278   -9.41423   14.71356
       O    -6.68530   -9.00883   15.40605
      H1    -7.60614   -9.04166   15.05714
       H   -16.14383   -8.76429   18.80474
       O   -15.81295   -9.47554   18.23015
      H1   -14.84093   -9.51200   18.39349
       H   -13.96723   -6.87925   16.76595
       O   -14.56600   -7.20597   16.09236
      H1   -15.22940   -7.78658   16.54104
       H   -10.18271  -16.25918   17.63650
       O   -10.46603  -16.99993   17.12021
      H1   -10.02148  -16.86739   16.29190
       H   -10.70469  -14.36852   10.05966
       O   -10.61770  -13.44026   10.41403
      H1   -11.29178  -13.34234   11.12611
       H    -8.96779  -13.83199   11.61463
       O    -8.36623  -14.62234   11.54371
      H1    -7.99523  -14.83938   12.39830
       H   -13.52166  -16.83878   15.51478
       O   -13.21464  -17.72276   15.80414
      H1   -12.35263  -17.72067   16.28422
       H   -17.36974  -12.73489    8.84519
       O   -18.00676  -12.10726    9.16119
      H1   -17.79177  -11.97920   10.11734
       H    -9.20760   -7.35957   13.85685
       O    -9.16051   -8.30849   14.09757
      H1    -8.76781   -8.83901   13.36992
       H   -12.72114  -13.33775    6.71562
       O   -11.93893  -13.80516    6.42204
      H1   -12.28258  -14.31846    5.68894
       H    -6.18717  -12.16054   17.32873
       O    -7.05026  -12.21869   17.01294
      H1    -7.06975  -12.08920   16.09213
       H   -10.23074  -16.37879   10.40737
       O   -10.91581  -16.08384    9.79795
      H1   -11.52761  -16.81707    9.57521
       H   -12.56480  -18.86845   14.41832
       O   -12.39604  -19.25446   13.51022
      H1   -12.33234  -18.45673   12.99551
       H    -9.94606  -10.50161   17.43550
       O    -9.49767  -11.22615   17.87506
      H1    -8.57714  -11.32868   17.59865
       H   -17.47414  -14.80912   11.13111
       O   -16.53623  -14.97919   11.31365
      H1   -16.55915  -15.85959   11.72187
       H   -13.00856   -7.05026   12.80824
       O   -12.93792   -6.17163   13.10885
      H1   -13.62206   -6.00450   13.80661
       H   -13.81524  -14.76574   16.20848
       O   -14.55326  -15.14335   15.65021
      H1   -15.19057  -15.48486   16.24782
       H   -15.30043   -8.38608   12.83355
       O   -14.41740   -8.79962   12.65153
      H1   -14.57510   -9.75655   12.65847

