153
frame 2 | Written by MDAnalysis XYZWriter (release 2.4.3)
       H    -7.68116    8.20047  -17.92304
       O    -8.66002    8.43468  -17.81861
      H1    -9.07162    8.01400  -17.03179
       H    -7.07264    4.50861  -18.50858
       O    -6.31353    4.49940  -17.92965
      H1    -5.56764    4.09701  -18.38570
       H     4.61246   14.70956  -19.69525
       O     3.91858   14.04571  -19.77094
      H1     3.69170   13.78422  -18.86026
       H    -5.58477   10.01715  -13.55861
       O    -5.53416   10.65988  -12.88387
      H1    -6.24669   10.53914  -12.27731
       H    -4.86443   13.38831  -11.06236
       O    -5.44261   13.27378  -11.81515
      H1    -5.29638   12.37209  -12.12922
       H    -5.91793   14.02785  -15.31567
       O    -5.33893   13.93044  -16.04717
      H1    -5.15575   14.87334  -16.30560
       H     3.27490   15.96388  -15.94971
       O     2.81281   15.45647  -16.59894
      H1     2.23970   16.15387  -16.93442
       H     0.48627   15.24777  -13.01816
       O    -0.33957   15.61906  -13.23071
      H1    -0.23018   15.69941  -14.18221
       H     0.57283   14.80817  -19.29673
       O     0.06141   15.25799  -18.58998
      H1    -0.19930   14.47886  -18.09708
       H    -4.28957   16.81496  -17.97872
       O    -3.86940   16.01465  -17.83388
      H1    -4.37486   15.26966  -18.16639
       H    -0.42002    5.59976  -13.82831
       O    -0.76660    4.75820  -14.14902
      H1    -1.09856    4.22568  -13.42415
       H    -8.00826   16.18535  -19.50393
       O    -7.18205   15.76190  -19.28458
      H1    -6.60229   15.70169  -20.02553
       H    -7.78562   11.55144  -16.50315
       O    -8.22480   10.78928  -16.06576
      H1    -8.53614   10.28919  -16.78656
       H    -6.01058    6.59688  -17.57363
       O    -6.09256    7.52982  -17.68061
      H1    -5.69678    7.93274  -16.90823
       H    -1.47732   18.40907  -17.21295
       O    -1.71435   18.06691  -16.33781
      H1    -1.70939   17.12199  -16.37254
       H    -1.17351   12.24147  -13.81531
       O    -0.83457   12.78606  -13.10777
      H1    -1.32274   13.63566  -13.22984
       H    -6.33248    4.93629  -15.24465
       O    -5.81142    5.62775  -14.84931
      H1    -4.86120    5.45334  -15.00767
       H    -0.86238    6.97323  -17.45711
       O    -0.98522    7.08774  -16.51689
      H1    -1.42373    7.93021  -16.31383
       H     0.63340    9.16511  -18.76140
       O     0.10435    9.71472  -19.33702
      H1     0.60468    9.89925  -20.12619
       H     0.39436   10.67190  -15.73715
       O    -0.42766   10.39531  -15.24640
      H1    -1.12604   10.37734  -15.88562
       H    -7.38022   17.44769  -18.32252
       O    -7.30393   18.23041  -17.77363
      H1    -7.91802   18.95183  -18.07043
       H     0.38755    3.69875  -18.06925
       O     0.35080    4.21116  -18.95928
      H1     1.30797    4.37603  -19.11369
       H    -3.02770   12.61469  -19.39075
       O    -2.24097   12.04169  -19.42625
      H1    -2.54333   11.16313  -19.43365
       H     2.46794   12.36411  -17.69917
       O     3.33260   12.75200  -17.41100
      H1     3.12673   13.66756  -17.03945
       H    -4.57741    8.54768  -14.75053
       O    -4.96742    9.09946  -15.44784
      H1    -5.86443    8.73725  -15.49213
       H     4.12013    7.85609  -17.51511
       O     3.86224    6.87765  -17.41271
      H1     2.88537    6.91880  -17.43195
       H    -3.79554    5.22904  -19.33112
       O    -3.49368    4.53068  -18.81181
      H1    -3.94413    3.71235  -19.14552
       H     0.11011   11.75103  -10.27367
       O    -0.75503   11.86155  -10.66194
      H1    -0.52991   12.31013  -11.49470
       H    -1.99467   12.51771  -17.65279
       O    -1.58924   12.86174  -16.84205
      H1    -2.03225   13.75569  -16.70117
       H     0.67154    7.97086  -16.64084
       O     1.46857    8.18105  -17.14349
      H1     1.97462    8.77106  -16.59269
       H    -9.10808   15.29907  -15.83159
       O    -9.42178   14.41134  -16.05433
      H1    -8.84583   13.82302  -15.46058
       H     3.82537    9.76863  -15.97502
       O     3.01192   10.04498  -15.59445
      H1     3.10814    9.77271  -14.64968
       H     3.62048   12.04025  -14.79928
       O     3.69298   12.75415  -14.10999
      H1     4.36969   12.41670  -13.51240
       H    -7.63293   13.15000  -18.22515
       O    -6.84762   12.60358  -17.91376
      H1    -6.34835   13.09960  -17.21477
       H    -3.88567   19.72046  -19.17383
       O    -4.16527   18.83298  -19.20457
      H1    -3.39606   18.28069  -19.46636
       H    -2.40413    6.04110  -16.08294
       O    -2.97322    5.37577  -15.63802
      H1    -2.35398    4.93191  -15.00922
       H    -3.20310   15.70467  -16.10662
       O    -2.41564   15.53369  -15.60096
      H1    -2.69984   15.42350  -14.67045
       H    -6.99213   12.50863  -13.85525
       O    -7.48929   13.33311  -14.01725
      H1    -7.06661   14.04839  -13.58068
       H     0.27091   17.24010  -18.48190
       O     0.03127   18.20000  -18.38552
      H1     0.44394   18.57011  -19.19132
       H    -2.99838    2.05885  -16.07935
       O    -3.80579    2.54444  -16.43567
      H1    -3.54810    3.47433  -16.44754
       H    -1.61393    9.04498  -19.28891
       O    -2.49487    9.31182  -18.92493
      H1    -3.04448    8.65935  -19.38522
       H    -2.20837    6.20775  -18.88675
       O    -1.31027    6.44414  -19.18880
      H1    -0.77731    5.60664  -19.06878
       H     2.39884   13.31863  -12.97349
       O     1.68161   13.62650  -12.36897
      H1     0.82441   13.37572  -12.68251
       H    -2.39386    7.86860  -13.29923
       O    -3.08593    7.36722  -13.69485
      H1    -2.78790    6.61229  -14.19784
       H    -2.00789   16.00205  -12.75565
       O    -2.95211   15.94488  -13.00933
      H1    -3.55568   15.92860  -12.24383
       H    -0.98903    9.86340  -13.43877
       O    -1.46218    9.69015  -12.53073
      H1    -1.25567   10.49417  -12.08634
       H    -0.15284   12.30379  -17.57690
       O     0.67985   12.14133  -18.05264
      H1     0.36625   11.49936  -18.70534
       H    -9.37101   11.09942  -14.67970
       O   -10.12998   11.30960  -14.10911
      H1    -9.75291   11.38109  -13.22243
       H    -9.80007   13.63218  -19.52406
       O    -9.35427   12.81545  -19.39982
      H1    -9.82437   12.19550  -18.89075
       H    -2.37637    9.32579  -17.16196
       O    -2.56923    9.36627  -16.21223
      H1    -3.49012    9.52926  -16.11695
       H    -4.90936   13.82534  -19.96998
       O    -4.41681   13.45588  -19.24277
      H1    -5.04378   12.87630  -18.81098

