153
frame 5 | Written by MDAnalysis XYZWriter (release 2.4.3)
       H     6.32960   -1.96411    3.01429
       O     6.04506   -1.33869    2.38166
      H1     6.64623   -0.53397    2.39571
       H     4.29245   -7.65118    3.83452
       O     4.69807   -6.93563    3.33410
      H1     4.06488   -6.91305    2.59490
       H     6.58253    3.28688    4.92959
       O     7.28173    2.67863    4.60366
      H1     7.62890    2.21401    5.38593
       H     2.98602    3.75621    9.69093
       O     3.44938    4.05105   10.46552
      H1     4.31781    3.74565   10.53894
       H     3.90811   -1.91018   13.35433
       O     4.35804   -2.74951   13.47928
      H1     3.72832   -3.30118   13.94272
       H     7.42226   -2.34983   11.23324
       O     7.33397   -1.54502   10.70350
      H1     6.69511   -1.79681   10.04223
       H     4.73814   -6.35849    5.32105
       O     4.71577   -5.79238    6.14758
      H1     4.66340   -4.84019    5.85562
       H     6.72574   -2.47790    1.00411
       O     6.82376   -3.10244    0.30066
      H1     7.22884   -2.65459   -0.46478
       H     6.40310   -5.97726    7.04817
       O     7.03677   -6.21405    7.76863
      H1     7.69573   -6.88546    7.37607
       H    -0.49318   -5.39679    5.82898
       O     0.11088   -6.10136    5.72953
      H1    -0.30191   -6.77884    6.30865
       H     1.05784   -5.88089    2.46770
       O     0.32561   -6.40204    2.84252
      H1     0.34138   -6.30910    3.80597
       H     4.72815   -2.58577    8.40008
       O     5.14912   -2.33977    9.24332
      H1     4.70765   -1.45497    9.42934
       H     3.27273   -2.10147    6.71789
       O     3.60415   -3.00196    6.83398
      H1     2.90794   -3.50588    7.30210
       H     5.88368   -5.72398    2.84022
       O     6.64227   -5.19693    2.59396
      H1     6.39394   -4.77111    1.77890
       H     4.67224    0.04223    4.40378
       O     3.80158    0.21122    4.76808
      H1     3.91959    1.08869    5.09121
       H     0.31328   -3.10389    2.83931
       O     0.96054   -2.80762    3.45849
      H1     0.49771   -2.25318    4.17687
       H     3.77591   -3.40121    5.04584
       O     4.25286   -3.44155    4.17962
      H1     3.72880   -3.96951    3.52583
       H    10.15320   -1.75174    4.87761
       O     9.65968   -0.91573    4.95838
      H1     8.74347   -1.22190    4.89760
       H     2.69930   -4.04401    1.60075
       O     2.55534   -4.65845    2.37464
      H1     2.08354   -4.10544    2.98320
       H     0.11488   -3.24094    8.10875
       O    -0.59277   -2.57364    8.18691
      H1    -0.45297   -2.03586    7.43336
       H    -1.73025   -5.60820    8.86401
       O    -1.24859   -6.20579    9.53927
      H1    -1.47105   -5.70339   10.28306
       H     6.93885   -3.60248    9.37070
       O     7.73803   -3.99399    9.17064
      H1     7.64519   -4.86778    8.77655
       H     3.51877    0.33464   10.25489
       O     3.98214    0.00290    9.49317
      H1     4.58210    0.71209    9.25452
       H     2.86730   -0.19109    3.22323
       O     2.21940   -0.50470    2.58318
      H1     1.96216   -1.32158    2.98890
       H     6.98511    0.18831    6.48604
       O     7.19423    0.96683    7.02662
      H1     7.67975    0.58502    7.77288
       H     7.19433    1.49824    1.51503
       O     6.42971    1.39776    2.00973
      H1     6.60014    1.86406    2.80401
       H     3.45266   -5.55857   10.20587
       O     2.66489   -6.13793   10.06590
      H1     2.11702   -5.73874   10.70886
       H    -0.35061   -1.35695   11.02310
       O     0.35656   -1.01285   10.47096
      H1     0.12648   -1.21927    9.57562
       H     7.77844   -5.14732    4.04197
       O     8.26106   -5.15065    4.81260
      H1     8.97651   -5.83281    4.81306
       H     0.73711   -0.40887    5.93346
       O    -0.11509   -0.76749    5.59436
      H1    -0.73780   -0.03248    5.71841
       H     9.60593    0.23527    8.64778
       O     8.84306    0.37863    9.22188
      H1     8.62263   -0.45426    9.71496
       H     6.01427    1.82488    8.15567
       O     5.36756    2.31162    8.69852
      H1     5.87028    2.83930    9.33908
       H     5.42817   -7.39999    8.39715
       O     4.80960   -8.08172    8.06504
      H1     4.21731   -7.50226    7.55693
       H     5.06245   -4.00537   12.03402
       O     5.20147   -4.97729   11.93795
      H1     6.14655   -5.23238   11.82878
       H    -2.13173   -3.67133    8.07223
       O    -2.50659   -4.56840    7.97797
      H1    -3.41835   -4.56601    8.33465
       H     3.09385   -0.08195    6.15753
       O     2.54105   -0.48111    6.89757
      H1     2.76467   -0.25798    7.76469
       H    -4.77004   -2.12783    5.52744
       O    -3.92113   -1.75827    5.31900
      H1    -3.27585   -2.47853    5.50715
       H     6.87338   -1.87841    5.94768
       O     6.56614   -1.31875    5.19910
      H1     5.72305   -1.72315    4.95872
       H    -1.73143    3.37528    7.64410
       O    -1.04094    3.09378    7.08915
      H1    -0.88796    3.94476    6.56718
       H    -3.24584   -4.71403    5.15454
       O    -2.32086   -4.57861    5.34934
      H1    -2.21774   -4.65234    6.33883
       H     6.24414   -0.01386   11.15872
       O     6.04515    0.88523   11.41033
      H1     5.10777    0.95214   11.75675
       H     0.80017    3.03149    7.86120
       O     1.73061    2.88680    8.13938
      H1     2.23914    2.83195    7.31920
       H     0.87677    0.56649   10.66236
       O     1.26593    1.50702   10.59802
      H1     1.31380    1.72297    9.61079
       H     0.06992   -4.42702   11.46811
       O     0.93248   -4.04802   11.35236
      H1     0.75286   -3.11714   11.08905
       H     1.13215   -4.85702    6.91406
       O     1.40316   -4.38008    7.76933
      H1     1.42598   -5.04467    8.48124
       H     8.06248   -3.65875    7.51487
       O     7.87687   -3.18389    6.65453
      H1     7.80914   -3.85837    5.93807
       H    -1.49502    1.95683    5.96330
       O    -1.74068    1.24577    5.36612
      H1    -1.25049    1.36599    4.52059
       H    -0.62765    0.98045    2.09120
       O     0.08926    1.31265    2.69850
      H1     0.85308    0.73930    2.45182
       H     4.12036    2.46692    7.05350
       O     3.60576    2.58578    6.25073
      H1     4.04420    3.29543    5.83271
       H     5.19743    0.80012    0.61625
       O     4.54394    0.30935    0.11973
      H1     4.18630   -0.32893    0.78271
       H     1.54573   -1.49803    1.17794
       O     1.45000   -2.22841    0.54857
      H1     0.55959   -2.07664    0.15277

