153
frame 9 | Written by MDAnalysis XYZWriter (release 2.4.3)
       H     8.31067    4.31353  -13.83173
       O     7.98756    4.03549  -12.92668
      H1     7.94808    4.84290  -12.44912
       H     7.89801    9.53615  -12.57777
       O     8.75867    9.78249  -12.20282
      H1     8.59793   10.50665  -11.62662
       H    12.40085    9.55473  -13.54718
       O    12.65683   10.27905  -14.14831
      H1    12.85531   10.95529  -13.55279
       H     3.07074    4.85044  -11.19440
       O     2.89446    4.30207  -10.35758
      H1     3.74572    4.20260   -9.90542
       H    11.84120    5.62907   -7.78748
       O    11.30709    5.18461   -7.09569
      H1    11.82470    5.40679   -6.28931
       H    12.96820    5.49953  -16.31323
       O    13.67589    6.04465  -16.53686
      H1    14.43051    5.59250  -16.19626
       H    12.06605    3.41742  -12.75546
       O    12.58030    3.82824  -12.02197
      H1    13.42477    4.09433  -12.39344
       H     9.84101   13.20617  -10.47119
       O    10.26586   12.79507  -11.18919
      H1    10.36406   11.81927  -11.05820
       H    12.73433   10.37191   -9.66936
       O    13.68398   10.56235   -9.55852
      H1    13.84204   10.83988   -8.67168
       H    10.04562    1.49620   -7.47516
       O     9.90177    0.74873   -8.05495
      H1     9.12031    1.06192   -8.60374
       H     4.46854   10.75864  -10.28454
       O     5.19138   10.24133  -10.57173
      H1     5.99989   10.77528  -10.59012
       H     5.41834    4.05293   -7.73451
       O     4.49449    3.96553   -8.04107
      H1     4.14381    3.34885   -7.34005
       H     7.43598    9.43800  -16.83813
       O     8.37271    9.06261  -16.84625
      H1     9.02658    9.73802  -17.02987
       H    11.53463    6.20148  -15.13940
       O    11.02707    5.93670  -15.92674
      H1    10.60928    5.14755  -15.79083
       H    13.41184    7.43353  -12.18941
       O    12.62298    7.84502  -12.66164
      H1    11.88424    7.58184  -12.05246
       H     5.20144   -0.09128   -9.59940
       O     5.73545    0.06052  -10.38257
      H1     5.26645    0.78350  -10.86941
       H     4.46055    2.54612  -14.61041
       O     4.19632    1.70832  -14.18110
      H1     4.82079    1.05152  -14.52787
       H     8.50645    4.25343  -16.55594
       O     8.37035    4.58930  -15.61007
      H1     8.13918    5.52651  -15.76360
       H     2.74767    7.00458  -11.92302
       O     3.19809    6.34543  -12.42461
      H1     2.73519    6.39994  -13.27760
       H     5.23054    5.68213  -13.08344
       O     5.57873    5.23284  -13.81068
      H1     6.43319    4.84983  -13.62078
       H     8.12317    7.25327  -11.11556
       O     8.31161    6.58354  -11.79288
      H1     8.22835    6.99088  -12.68744
       H    10.60177   10.08209   -9.75861
       O    11.24232   10.18266  -10.49911
      H1    11.18761    9.25105  -10.88865
       H     3.16104    6.75878  -15.33691
       O     2.29572    6.29336  -15.27312
      H1     2.26188    5.41203  -15.71890
       H    10.56383    6.28089  -19.07242
       O     9.90394    5.85277  -18.54032
      H1    10.28539    6.03947  -17.67468
       H     8.53152    2.26259  -10.89481
       O     9.14138    2.12336  -11.59799
      H1     8.94966    2.78531  -12.26378
       H     7.27361    3.05988   -6.66045
       O     7.16849    3.70280   -7.33529
      H1     7.72904    4.51283   -7.23170
       H     3.83039    2.06558  -12.32236
       O     3.90640    1.86924  -11.39621
      H1     3.58444    2.62127  -10.85593
       H     5.41714    4.32474  -15.45242
       O     5.12592    3.67526  -16.10490
      H1     5.99619    3.40660  -16.41647
       H     9.64731    9.68806   -7.35519
       O     9.43787    9.64194   -8.30988
      H1     8.80041    8.89310   -8.33118
       H     7.03129    1.41500   -9.21246
       O     7.73899    2.06186   -9.29061
      H1     7.46060    2.81734   -8.72976
       H    10.79247   10.47035  -14.26150
       O     9.98710   11.02358  -14.13907
      H1     9.55307   10.41164  -13.42310
       H    12.90828    1.62652  -14.11135
       O    13.01082    1.29764  -13.19775
      H1    13.04262    2.14403  -12.66303
       H     8.26408    6.50946   -6.52409
       O     8.66957    5.91571   -7.15977
      H1     9.62576    5.77493   -6.98372
       H     7.70947    6.83371   -8.49380
       O     7.77103    7.45841   -9.26019
      H1     6.89207    7.87437   -9.25816
       H     6.63314    9.52253   -7.20588
       O     7.07872    9.88256   -6.40241
      H1     6.26912   10.12758   -6.00722
       H     9.72966    7.14111  -11.23417
       O    10.57049    7.46952  -10.86441
      H1    10.88764    6.86974  -10.13884
       H     8.33725    7.91447  -15.54682
       O     8.33260    7.23798  -14.86301
      H1     9.27740    6.88162  -14.91598
       H     7.85336   11.97034   -9.85005
       O     7.50055   11.66814  -10.74410
      H1     7.22198   12.41720  -11.25632
       H     7.71760   -0.60970  -12.13456
       O     8.29795   -0.15441  -12.75520
      H1     8.61588    0.72135  -12.30540
       H    12.31555    2.63475  -15.89097
       O    11.74656    2.82054  -15.13622
      H1    11.01813    2.14381  -15.09957
       H     5.03670    9.13811   -9.01345
       O     5.51569    8.70524   -8.31029
      H1     4.89042    7.94872   -8.10963
       H     6.70045    7.21471   -5.23969
       O     7.63942    7.51521   -5.13386
      H1     7.50833    8.38427   -5.66078
       H     5.43785   12.30156  -13.79286
       O     5.73244   11.47386  -14.25862
      H1     5.78079   10.67840  -13.69370
       H     7.31668   12.11880   -7.93797
       O     8.19421   12.01543   -8.30597
      H1     8.47102   11.12729   -8.25496
       H     5.37495    8.58175  -13.33388
       O     6.11095    8.99936  -12.89948
      H1     5.75376    9.36853  -12.05348
       H    11.56742    0.94603  -11.55134
       O    11.61687    0.83709  -10.60669
      H1    10.90989    1.45680  -10.35293
       H    13.32677    3.40345  -10.44017
       O    13.66884    3.44844   -9.51528
      H1    13.40120    2.57499   -9.18663
       H    13.12876    6.82207   -9.07431
       O    12.40882    6.20621   -9.18562
      H1    12.72250    5.68246   -9.93814
       H     3.88363    5.85027   -7.77252
       O     3.92262    6.75447   -7.35442
      H1     3.00010    7.03145   -7.48585
       H     8.71145   12.04059  -15.03438
       O     7.87726   12.53693  -15.19343
      H1     7.16785   11.95251  -14.96801
       H     5.15474    8.54863  -15.59716
       O     4.30183    8.31572  -15.32871
      H1     3.79871    9.09460  -14.96611

