153
frame 8 | Written by MDAnalysis XYZWriter (release 2.4.3)
       H     8.17651  -12.08781    6.24679
       O     8.68570  -12.83964    6.64027
      H1     8.19765  -13.15562    7.39398
       H    12.22684  -15.38515   11.74960
       O    11.97075  -15.16718   10.85744
      H1    11.20486  -15.73825   10.62147
       H     5.23452   -8.29002    9.92708
       O     5.51040   -8.46265   10.86330
      H1     6.08705   -9.25600   10.78111
       H     7.06832  -18.07951   14.74392
       O     7.11775  -17.28857   14.25076
      H1     6.25923  -16.89163   14.41970
       H     8.66037  -13.44637   13.08006
       O     9.07250  -14.28459   13.37389
      H1     8.65038  -14.56485   14.21766
       H     8.56339   -9.00886    7.12764
       O     8.28160   -8.54571    6.37420
      H1     8.92422   -7.90157    6.23093
       H     7.37336  -10.93329   10.82737
       O     6.79757  -10.76242   10.04924
      H1     7.39079  -10.43871    9.33652
       H     1.11591  -14.35384    7.85280
       O     1.33956  -13.93454    8.68461
      H1     1.73513  -13.04520    8.34742
       H     4.25029   -8.16740    5.57137
       O     3.90928   -7.42181    6.13375
      H1     4.41907   -6.63625    5.72832
       H     5.29069   -7.52059    7.45172
       O     6.04489   -7.62871    8.06009
      H1     6.77118   -8.08592    7.59205
       H     7.82357  -14.13504    5.66841
       O     7.49724  -14.90187    5.19491
      H1     7.68210  -14.75324    4.26854
       H     0.24651  -12.14763   11.22637
       O     0.68811  -12.99789   11.30210
      H1     0.86660  -13.22179   10.37193
       H     4.91719  -13.96251   12.55664
       O     5.77529  -13.92754   12.97595
      H1     6.41174  -14.37337   12.38663
       H    10.02987  -16.10800   13.51391
       O    10.60583  -16.82057   13.54803
      H1    10.33000  -17.57140   13.02148
       H     2.81429  -11.87558    3.23469
       O     2.99085  -11.25295    2.50155
      H1     2.09532  -10.75479    2.33202
       H     9.03821  -19.18316   10.80948
       O     8.21473  -19.38990   11.24339
      H1     8.44114  -19.95867   11.97057
       H    -0.63363  -13.30202    4.48339
       O    -0.14484  -13.14864    5.33274
      H1     0.81849  -13.00454    5.15427
       H     5.62620  -12.24991    9.57722
       O     4.98098  -12.95973    9.41910
      H1     5.52648  -13.71985    9.14135
       H     7.11660  -16.03645   11.27130
       O     7.63252  -15.22839   11.20805
      H1     8.03629  -15.12246   12.07247
       H     7.51811   -9.99854    5.51711
       O     7.13539  -10.82355    5.18573
      H1     7.72622  -11.31241    4.63053
       H     6.45893   -7.19770   11.06114
       O     6.84858   -6.31441   11.17711
      H1     7.32814   -6.12456   10.33676
       H     4.27914  -18.02854    7.03746
       O     4.35943  -17.72161    7.93720
      H1     4.53995  -18.52794    8.45885
       H     4.70002  -10.39138   14.52862
       O     5.04688   -9.90446   13.74689
      H1     4.39105   -9.91387   13.02289
       H     9.79478  -16.53052    9.01749
       O     9.84359  -16.72552    9.99476
      H1     9.10192  -16.22653   10.33416
       H    -0.30883   -9.57838   11.83521
       O     0.22467  -10.16277   11.24820
      H1     1.06239  -10.19571   11.66171
       H     4.07029  -17.23509    4.92259
       O     3.86803  -18.20565    4.98440
      H1     2.90770  -18.19131    4.84139
       H     5.10433  -12.13012    6.48536
       O     4.22567  -12.36564    6.88940
      H1     4.45989  -12.58036    7.83658
       H     7.82327  -11.34969   13.49192
       O     7.58020  -11.90441   12.72092
      H1     6.74947  -12.42686   12.93516
       H    11.97393  -14.39266    8.89834
       O    11.82200  -14.12139    8.01095
      H1    12.69787  -14.03592    7.61201
       H     3.19050  -17.31731   12.41035
       O     3.77971  -16.65595   11.93305
      H1     3.18298  -16.17764   11.33820
       H     3.02297   -7.87804    7.64891
       O     2.81438   -8.43474    8.38621
      H1     1.89786   -8.31575    8.73517
       H    -0.30818  -15.54557    6.89422
       O     0.62394  -15.44669    6.69187
      H1     0.59602  -14.89640    5.93457
       H     3.82676   -9.75010   11.26308
       O     3.20916  -10.19592   11.83261
      H1     3.42023  -11.11289   11.81771
       H     0.03105   -8.61157    5.90403
       O     0.68564   -9.20717    5.53633
      H1     0.92384   -9.79416    6.25172
       H     2.93120  -11.07490    7.58833
       O     2.03171  -10.99064    7.83915
      H1     1.98406  -10.10163    8.26465
       H     4.58467  -15.01853    5.44432
       O     4.07788  -15.37090    4.68507
      H1     4.66379  -15.05581    3.95946
       H     4.30279  -10.28960    3.84001
       O     4.75675   -9.52950    4.22721
      H1     5.55894  -10.02031    4.56307
       H     3.55951  -16.29646    8.71993
       O     3.21407  -15.70206    9.39005
      H1     2.44900  -15.28024    9.00759
       H     3.39458  -12.86552   15.03499
       O     2.62677  -13.09882   14.46821
      H1     2.98899  -13.06114   13.52740
       H     9.98808  -18.70905    4.76143
       O     9.18731  -18.16319    4.71790
      H1     9.23274  -17.74854    5.57436
       H     2.84319  -12.42383    5.61488
       O     2.40928  -12.80102    4.85055
      H1     2.81796  -13.69508    4.69634
       H     7.91618   -9.37659   15.46375
       O     7.73231   -9.74515   14.58233
      H1     6.77782   -9.89052   14.53788
       H     1.04904  -17.13484    5.69093
       O     1.05166  -17.94044    5.15300
      H1     0.90366  -17.64886    4.26357
       H     7.19599  -15.09359    8.30300
       O     7.28284  -14.18515    8.57308
      H1     7.23610  -14.17975    9.49124
       H     2.50486  -13.29499   11.67312
       O     3.45239  -13.12096   11.78449
      H1     3.84836  -13.14693   10.89993
       H     6.81779  -17.99318   11.29253
       O     6.15422  -17.45776   10.80758
      H1     5.41151  -17.17957   11.32703
       H     8.62818  -16.70756    7.43443
       O     9.53547  -16.76127    7.23862
      H1     9.76041  -15.83009    6.99064
       H     5.28327  -15.32186   13.99206
       O     4.89589  -15.67784   14.77697
      H1     4.26939  -16.31942   14.55619
       H     6.63933  -16.63602    6.56917
       O     6.91208  -16.73806    7.48582
      H1     6.12153  -17.18700    7.82956
       H    11.51100  -12.31386    8.44515
       O    11.29065  -11.40500    8.48906
      H1    11.39117  -10.94489    7.66770
       H     9.30718   -9.44962    9.30762
       O     9.00093   -9.94586    8.53757
      H1     9.63376  -10.65788    8.41513

