153
frame 10 | Written by MDAnalysis XYZWriter (release 2.4.3)
       H    17.72996   16.48144    3.36871
       O    18.08935   16.20712    2.52363
      H1    17.47411   15.47417    2.30711
       H     8.41602   19.03828   13.88220
       O     9.11651   18.90711   13.19472
      H1     9.96247   18.74488   13.71661
       H    14.80527   12.12027    4.66975
       O    15.69725   11.88624    4.39177
      H1    15.60903   11.83580    3.43166
       H    13.29943   17.79929   16.76302
       O    13.65894   17.59787   15.86860
      H1    13.91186   16.65976   15.87159
       H    14.83550   15.15674    3.06477
       O    13.92139   15.30427    3.27003
      H1    13.99430   15.94197    3.92935
       H     7.17418   17.39365    8.06136
       O     7.06862   16.43419    7.80098
      H1     6.21476   16.36967    7.32961
       H    16.73907   18.41878   13.65498
       O    17.24812   17.72020   14.13093
      H1    18.10888   17.67953   13.63251
       H    16.40936   13.62571    3.47177
       O    16.54785   14.09612    2.62667
      H1    16.28407   13.51181    1.88612
       H    11.33168    8.84369   11.29616
       O    11.85664    9.54155   11.67967
      H1    12.11758   10.13280   10.92869
       H    13.06404   11.72049    9.22225
       O    12.25551   11.46362    9.69518
      H1    11.66422   12.23526    9.93208
       H    14.18313   17.03574    8.71250
       O    14.07266   17.77130    9.32380
      H1    14.89014   18.14847    9.56169
       H    14.08849   11.15776   11.48886
       O    14.72409   10.57774   11.00550
      H1    14.34089   10.35855   10.09930
       H     7.47917   17.41050   12.39640
       O     6.76749   16.77445   12.38271
      H1     6.72927   16.41289   11.48954
       H    12.41826   18.36070    3.57890
       O    13.32361   18.18783    3.83800
      H1    13.90270   18.95216    3.71700
       H    10.08524   17.18093   12.01508
       O    10.58953   16.95540   11.27791
      H1    11.56194   17.05308   11.56277
       H    10.54678   18.04826    9.76434
       O    10.40620   18.46481    8.85718
      H1     9.56185   18.93651    8.86008
       H    17.41101   14.28660    9.51785
       O    17.85346   15.09098    9.86942
      H1    17.76084   14.84959   10.80244
       H    11.37280   14.41297   15.69403
       O    11.47445   13.83194   16.48557
      H1    12.27683   13.33306   16.27662
       H    17.08824   12.13096    5.60833
       O    17.64327   12.43652    6.34671
      H1    18.55543   12.16481    6.14238
       H    13.12140   16.85312    6.14926
       O    13.79017   16.11171    6.29044
      H1    14.62242   16.44167    5.95266
       H    12.70233   15.37764    2.19863
       O    11.97216   15.59993    1.57737
      H1    12.18753   16.45742    1.19382
       H     8.96070   14.26804    5.29132
       O     9.39786   13.51974    4.91119
      H1    10.32854   13.66115    4.70570
       H     6.99753   19.45276    8.78683
       O     7.72697   19.14619    8.20933
      H1     7.41279   19.41721    7.33878
       H    17.58084   17.90901    1.63256
       O    16.86376   18.39401    1.17179
      H1    16.03803   18.01521    1.38593
       H    17.22171   11.85698    9.56912
       O    17.01563   12.63791    9.07265
      H1    17.20430   12.28272    8.16108
       H    13.50775   14.25734    5.96383
       O    13.51345   13.28066    5.91100
      H1    13.63115   12.95545    6.86500
       H     8.16844   16.18680    6.41452
       O     8.80283   16.11517    5.73317
      H1     8.38315   16.38426    4.87047
       H    15.73571   19.34505    6.20119
       O    16.70574   19.15747    6.39804
      H1    17.15111   19.95588    6.03732
       H    15.33971   12.44598    8.70490
       O    14.53863   12.11851    8.23279
      H1    14.82143   11.43840    7.67462
       H    12.63217   18.90616    0.99207
       O    13.04599   18.05471    1.07356
      H1    13.32263   18.12473    1.95972
       H     9.33975   11.89076   13.47251
       O     9.93515   11.64648   12.71666
      H1    10.36715   10.94516   13.14069
       H    14.36024    9.10193    6.73444
       O    15.03881    9.80235    6.73395
      H1    15.52806    9.67934    5.92794
       H    10.88879   18.10280    4.87303
       O    10.51447   18.27387    3.99936
      H1     9.88739   17.56243    3.80072
       H    11.16544   11.29437    8.22368
       O    10.81387   11.05236    7.34723
      H1    10.79746   11.90764    6.94792
       H    15.38869   14.73450   12.93373
       O    14.50935   14.89598   13.30289
      H1    13.99382   14.10918   13.07401
       H    10.99575   17.65809    7.34330
       O    11.31183   17.23301    6.55685
      H1    10.53939   16.67609    6.18846
       H     6.39316   15.68261    9.39711
       O     5.90989   15.30121   10.10573
      H1     5.00060   15.59402   10.02816
       H    10.64225   14.53440   11.03417
       O    10.57525   13.54352   11.00726
      H1    10.39211   13.27281   11.92403
       H    17.82853   10.08293   11.17530
       O    17.43410   10.96887   11.46161
      H1    16.48873   10.81875   11.56086
       H    19.16630   15.23008    6.76472
       O    18.17977   15.13138    6.78305
      H1    18.02036   14.13548    6.66684
       H    18.09706   16.89132    8.80947
       O    18.51986   17.54732    8.24511
      H1    17.80296   17.98966    7.69068
       H    13.70555   16.50217   12.49115
       O    13.24417   17.16208   11.95882
      H1    13.71562   17.13502   11.11990
       H    14.67028   14.80005   14.99555
       O    14.61696   14.87406   15.98455
      H1    15.54470   15.08036   16.19715
       H    17.39783   16.23309    5.42444
       O    16.87486   16.75024    4.81049
      H1    16.83057   17.64736    5.13900
       H    16.30561   11.48922   15.19997
       O    15.75231   12.15119   15.67128
      H1    15.60227   12.83321   15.00635
       H    12.39045   12.53991   12.41802
       O    13.30198   12.54777   12.74227
      H1    13.20905   12.19186   13.64017
       H    12.42078   12.68371    4.10607
       O    11.61569   12.49045    3.57302
      H1    11.28216   11.64627    3.81343
       H     9.91846   15.27855   14.07117
       O    10.83920   15.44572   14.11455
      H1    10.91339   16.27629   14.61057
       H    17.41654   15.56569   13.48870
       O    17.33963   14.76110   12.95245
      H1    17.90059   14.05633   13.36793
       H    19.83337   13.84448   11.48113
       O    19.47868   12.99127   11.06771
      H1    18.55044   12.81983   11.23383
       H    10.83912   18.57375   15.79132
       O    11.14679   17.99663   15.08733
      H1    12.06964   17.89733   15.40115

