153
frame 9 | Written by MDAnalysis XYZWriter (release 2.4.3)
       H     6.86616    9.74833   10.69552
       O     7.08604    8.78844   10.51427
      H1     6.91875    8.70120    9.55588
       H     3.87120   10.72498   17.45555
       O     3.88969    9.76043   17.33690
      H1     4.70830    9.39456   16.99113
       H     5.74275   12.69281   14.86537
       O     6.16398   12.05232   15.48672
      H1     5.85152   11.16572   15.15421
       H     1.85486    4.23120   10.17252
       O     2.28226    4.93005   10.69413
      H1     1.57364    5.15311   11.35747
       H     3.89195   14.52426   14.46018
       O     4.41494   13.75413   14.18840
      H1     4.24380   13.74276   13.25678
       H     3.25772    6.74654    6.75809
       O     3.47507    6.06639    6.12024
      H1     3.82863    5.33521    6.63037
       H    10.74096    9.46301   11.30462
       O    11.06388   10.34781   11.57889
      H1    11.33314   10.79551   10.78918
       H    12.45563   11.63460    8.97998
       O    11.53048   11.76077    9.00901
      H1    11.33632   12.71807    9.11872
       H     5.42766    3.47760    5.87047
       O     4.97474    3.79839    6.68962
      H1     5.65938    4.35325    7.15034
       H     3.17055    6.02387   13.91763
       O     3.77859    6.80334   13.89637
      H1     3.39304    7.49128   14.44608
       H     8.17639    7.27899    4.73320
       O     8.12606    6.50857    5.34676
      H1     9.03670    6.28473    5.64967
       H     6.85520   16.80309   12.81085
       O     6.04123   16.28372   12.76532
      H1     6.16812   15.77290   11.94903
       H     9.30001    6.79243   15.89394
       O    10.25190    6.80246   15.68561
      H1    10.20905    6.23993   14.89281
       H     2.66541    9.57071    5.72739
       O     3.40353    9.63261    6.36860
      H1     3.62689   10.55482    6.30671
       H     6.65147   14.72641   14.64778
       O     7.47287   15.11257   15.04359
      H1     8.04355   14.33595   15.10072
       H    13.80836    9.55079   12.96882
       O    12.88601    9.35766   13.24961
      H1    12.36405    9.82796   12.60024
       H     4.04307   12.45960    7.43642
       O     3.10599   12.33301    7.68227
      H1     3.16870   11.88682    8.55914
       H     7.08141    7.35699   16.06537
       O     7.55607    6.60994   15.72786
      H1     6.94019    5.96270   15.34373
       H     0.55731   10.31450   11.26621
       O    -0.07279   11.03750   11.38340
      H1    -0.44429   11.18375   10.52164
       H     5.34236    6.93000   12.99559
       O     6.06676    6.73847   12.37175
      H1     6.76572    7.41490   12.46461
       H     7.04813    7.48610    6.49139
       O     6.59496    7.96467    7.21779
      H1     6.36249    8.82953    6.87082
       H    10.73615   10.30913    5.68132
       O    11.21890    9.94556    4.93877
      H1    10.51395    9.67049    4.35085
       H     9.66446   12.58272   15.36075
       O     8.84243   12.71004   14.96231
      H1     8.14665   12.07983   15.27931
       H     6.22736    6.40554    8.00260
       O     6.14320    5.60930    8.53716
      H1     5.39729    5.75913    9.08292
       H     2.34900    9.83514   14.56664
       O     2.17400    9.18599   15.25602
      H1     2.77947    9.47366   15.98278
       H     4.95809   13.71398   10.80158
       O     4.54076   13.11330   11.40263
      H1     3.96096   12.57823   10.84815
       H     6.12542    3.64629   13.84116
       O     6.78190    4.36659   13.88877
      H1     6.47298    5.12201   13.32928
       H     9.81725    7.23408   10.21212
       O     9.74388    8.19966   10.11286
      H1     8.76680    8.33703   10.10392
       H     5.85489   11.95967   11.44015
       O     6.48340   11.28688   11.58920
      H1     7.27682   11.78246   11.76961
       H     1.63052    8.69831    9.56403
       O     1.36639    8.94046   10.48001
      H1     1.08528    8.14889   10.94883
       H     1.51920   12.38405   13.48285
       O     0.69063   12.89125   13.26730
      H1     0.22979   12.38358   12.60275
       H     6.30428   10.13196    3.67514
       O     6.62241    9.66893    4.49209
      H1     5.76133    9.22500    4.70251
       H     9.25983   12.63378   13.07654
       O     9.28587   12.27569   12.17475
      H1     9.84474   11.54638   12.09677
       H     5.44998   12.68442    5.11906
       O     5.43929   12.88863    6.06555
      H1     5.99091   12.40788    6.62309
       H    10.51993    7.85549    8.15431
       O    11.30678    7.46122    7.75196
      H1    11.12348    6.61559    7.36493
       H    10.43886   11.29741    7.58040
       O     9.63124   11.19417    7.04666
      H1     9.52556   11.97052    6.44442
       H     7.69556   10.65552    7.70893
       O     6.85352   11.05070    7.74385
      H1     6.90320   11.73722    8.41118
       H     6.62923   15.39977    9.53109
       O     5.97947   15.22870   10.23304
      H1     5.21152   15.52888    9.84542
       H     3.56407    8.65747   11.80676
       O     4.11603    9.41078   11.98872
      H1     4.99372    9.06551   12.35337
       H    10.58167   14.87642   10.64269
       O    11.06512   14.10658   10.95906
      H1    10.44312   13.60069   11.46806
       H     3.03825    7.68516    8.91387
       O     2.40963    7.92394    8.22671
      H1     2.92612    8.61715    7.79960
       H     9.45102    5.13523   13.07829
       O     9.66563    4.86611   13.95904
      H1     8.84543    4.52038   14.30702
       H     3.38726    6.41624   10.74865
       O     4.04599    7.00309   10.30089
      H1     4.81165    7.00342   10.91872
       H     5.64052    8.10959   17.50084
       O     6.16971    8.68217   16.92729
      H1     6.69950    9.26450   17.55484
       H    10.35368    4.76270   10.62474
       O    10.44536    5.52166   11.19744
      H1    11.41114    5.69501   11.23510
       H     7.51175    9.92957   14.40177
       O     6.69771    9.66250   13.95143
      H1     6.67943   10.30264   13.20224
       H    12.59882   13.21853   11.61863
       O    13.46420   12.84086   11.88865
      H1    13.41564   12.59545   12.82987
       H     3.70944   10.97134   13.10942
       O     3.11889   11.39245   13.78025
      H1     3.68397   12.08667   14.21479
       H     1.94031   11.41197   10.08726
       O     2.88426   11.38915   10.24072
      H1     3.02346   10.41849   10.38186
       H     9.96636    8.81270   15.37872
       O     9.59814    9.60900   15.83953
      H1     9.56926    9.37694   16.76338
       H     6.66504    4.21884    9.92148
       O     6.91239    3.53408   10.55863
      H1     7.11678    4.04659   11.32194

