153
frame 1 | Written by MDAnalysis XYZWriter (release 2.4.3)
       H   -14.91242   -6.35110   10.31570
       O   -15.85989   -6.59702   10.13036
      H1   -16.19687   -5.74420    9.81287
       H   -18.05040    0.20878   10.47884
       O   -18.70549   -0.14252   11.11262
      H1   -18.79780    0.54676   11.81666
       H   -17.41496  -10.51785   11.74062
       O   -17.31050  -11.30208   12.33638
      H1   -18.24136  -11.65391   12.35073
       H   -11.86878   -7.25439   17.44458
       O   -12.81271   -7.50706   17.67281
      H1   -12.83068   -7.31971   18.63798
       H   -16.76404   -5.93955   13.11923
       O   -16.14173   -5.20353   13.19357
      H1   -16.15909   -4.74328   14.04035
       H   -19.87923   -6.16005   11.63176
       O   -19.25078   -5.62123   12.05632
      H1   -19.64614   -4.74808   11.94555
       H   -14.32889   -0.42503   15.02125
       O   -13.36338   -0.50372   15.03332
      H1   -13.26977   -1.06872   14.24577
       H   -14.09410  -10.42465   15.14810
       O   -14.43949  -11.09767   15.78819
      H1   -14.28191  -10.66413   16.66780
       H   -14.54924   -8.07821    7.58437
       O   -15.43917   -8.22731    7.98138
      H1   -15.62183   -7.54921    8.62500
       H    -9.72529   -4.13575   15.55608
       O    -9.58449   -3.14728   15.39095
      H1    -8.75161   -2.85502   15.91961
       H   -10.22867   -8.05852   15.32299
       O   -10.30388   -8.91575   15.74195
      H1   -10.68293   -9.44982   15.03241
       H   -16.39049   -3.35172   12.40048
       O   -16.61816   -2.51745   11.98876
      H1   -17.53839   -2.42597   11.89046
       H   -17.06177   -7.91267   10.67760
       O   -17.43322   -8.75195   10.97738
      H1   -18.36312   -8.79790   10.69986
       H   -12.47711   -9.93713   10.62536
       O   -11.78493  -10.58564   10.72414
      H1   -12.17041  -11.34244   10.21062
       H   -17.16365   -8.39716   12.66922
       O   -16.89057   -8.04919   13.52782
      H1   -15.97910   -8.37324   13.69581
       H   -12.20666   -6.45569   11.16974
       O   -11.49131   -6.97404   11.59790
      H1   -11.02779   -7.43006   10.85509
       H   -13.49485   -4.31551    9.83380
       O   -13.29818   -5.23692    9.87462
      H1   -13.42013   -5.50149    8.98676
       H   -18.15895   -5.83510   14.91830
       O   -19.12200   -5.83523   14.69428
      H1   -19.15001   -5.75713   13.70404
       H   -14.72192    1.77415   13.00527
       O   -15.59600    1.24348   12.81465
      H1   -15.42164    0.66935   12.05759
       H   -17.21386    1.06301    8.57448
       O   -16.84889    0.43640    9.23316
      H1   -16.68793   -0.41278    8.84323
       H   -14.22150  -12.60244   12.81061
       O   -14.49560  -11.81135   12.37444
      H1   -15.46448  -11.80861   12.32631
       H   -18.88805   -5.48026   19.01363
       O   -17.95135   -5.07703   18.92764
      H1   -17.51289   -5.20755   19.78605
       H   -15.79496    0.10948   14.20246
       O   -16.03241   -0.27462   15.02592
      H1   -16.20916   -1.21052   14.79911
       H   -16.64882   -2.57726   19.20861
       O   -17.14315   -1.76077   19.23051
      H1   -18.06818   -1.99993   19.00056
       H   -12.06740   -7.83583   13.33313
       O   -12.54149   -7.63440   14.11327
      H1   -13.03643   -6.79053   13.92981
       H   -14.66458   -8.85486   11.08149
       O   -14.10714   -8.94392   10.33892
      H1   -14.66420   -8.76052    9.61559
       H   -17.13302   -1.51828    7.20766
       O   -16.70217   -1.87307    8.02079
      H1   -15.81173   -2.00589    7.69862
       H   -19.16470   -4.10259   15.35799
       O   -19.32374   -3.31698   15.87526
      H1   -19.74883   -2.68426   15.31092
       H   -13.64633   -2.77041   11.54876
       O   -14.08695   -2.91271   10.67160
      H1   -15.03751   -2.70203   10.90312
       H   -19.00747   -9.31860   16.88369
       O   -19.63939   -9.19331   17.62945
      H1   -20.10948   -9.99314   17.81912
       H   -15.28028   -6.73926   18.61366
       O   -16.05500   -7.26633   18.37608
      H1   -16.80160   -6.63160   18.57275
       H   -13.76608   -6.16193   16.89460
       O   -14.26738   -5.47175   16.49625
      H1   -15.01091   -5.98340   16.10236
       H   -16.87943   -7.03455   15.01198
       O   -16.66528   -6.39465   15.71514
      H1   -16.54177   -6.86152   16.54910
       H   -12.79723   -3.19355   13.54791
       O   -12.80438   -2.33477   13.13694
      H1   -11.94021   -2.23607   12.65927
       H   -12.21358   -1.31664   16.21582
       O   -11.65669   -1.83510   16.76252
      H1   -11.06185   -2.25803   16.14111
       H   -16.31654  -10.32689   17.53084
       O   -15.70872  -10.03517   18.28722
      H1   -15.85431   -9.10574   18.45881
       H   -16.20200   -2.75555   16.10411
       O   -16.48384   -3.00575   15.22225
      H1   -17.41710   -3.09739   15.32597
       H   -17.55768   -4.34703    9.75924
       O   -16.88825   -4.25241    9.04812
      H1   -16.97736   -3.30782    8.66825
       H    -9.87088   -1.03654   14.25074
       O    -9.39646   -0.49217   13.69777
      H1    -9.23365    0.35764   14.09022
       H    -9.61445   -5.98888   13.87944
       O    -9.18627   -6.13932   13.03537
      H1    -9.89654   -6.56297   12.52515
       H   -19.59126   -2.25724   11.17752
       O   -19.53349   -2.91861   11.85268
      H1   -19.62421   -2.42686   12.68325
       H   -10.18207   -5.88149   16.43743
       O   -10.25158   -5.93941   15.47579
      H1   -11.20857   -6.07809   15.43423
       H   -10.08139   -2.23787   11.49283
       O   -10.80559   -1.71283   11.27453
      H1   -10.47278   -0.83209   11.42822
       H   -17.75419  -10.74539   15.54604
       O   -17.80150   -9.78191   15.74381
      H1   -17.48543   -9.31335   14.92316
       H   -15.92374   -5.11325    5.85346
       O   -16.79817   -4.89278    6.17825
      H1   -16.75119   -4.89594    7.16766
       H   -17.78460    1.94299   16.81544
       O   -17.51891    1.88474   15.88469
      H1   -16.96331    1.15184   15.75758
       H   -14.58287   -3.80469   17.30932
       O   -14.91883   -3.00871   17.80476
      H1   -14.12538   -2.43141   17.83230
       H   -13.95414   -4.98097   14.77067
       O   -13.69546   -5.14990   13.84676
      H1   -14.55947   -5.26191   13.40485
       H   -11.63707    2.02446   15.84361
       O   -11.38247    1.44016   15.15113
      H1   -11.94700    0.64281   15.04995
       H   -10.90676   -2.71021    9.65985
       O   -10.80779   -2.89140    8.72719
      H1    -9.85321   -2.94127    8.56110
       H   -14.46694  -10.26187   13.02489
       O   -14.51196   -9.43019   13.56316
      H1   -13.74430   -8.79206   13.55329

