153
frame 9 | Written by MDAnalysis XYZWriter (release 2.4.3)
       H    14.94949  -13.65585    3.54799
       O    14.30001  -13.20787    2.96209
      H1    13.52222  -13.82373    2.83814
       H    17.16201  -15.63167    0.01309
       O    17.00949  -14.74015   -0.32543
      H1    16.39904  -14.88907   -1.09813
       H     9.28766  -12.94534   -1.44948
       O     8.49870  -12.83369   -2.01140
      H1     8.85452  -12.46556   -2.81294
       H    11.77463  -13.86801    1.56590
       O    11.73485  -14.32107    2.42566
      H1    11.89507  -15.24082    2.11757
       H    13.49582  -10.00461    0.17307
       O    13.06658   -9.73669   -0.64734
      H1    12.36392  -10.35326   -0.83545
       H    13.84130  -17.71652   -3.71857
       O    12.89286  -17.84254   -3.91236
      H1    12.86951  -17.56681   -4.83007
       H    15.78577  -12.74371    2.09337
       O    16.60780  -12.63513    1.62501
      H1    16.57366  -13.17820    0.81407
       H     8.55006  -16.75285   -0.81930
       O     9.22130  -16.10199   -0.64667
      H1     8.80148  -15.57903    0.06054
       H     8.45460  -14.12572   -3.36302
       O     8.26542  -14.82305   -4.04534
      H1     8.58155  -14.43579   -4.89198
       H     9.13407  -10.50885   -4.11929
       O     9.55383  -11.37150   -4.20071
      H1    10.02213  -11.38330   -5.03073
       H    17.32394  -12.26968   -3.80746
       O    16.54407  -11.81661   -3.40259
      H1    16.43865  -10.98836   -3.87927
       H    15.85354  -10.78903    1.36561
       O    15.31753   -9.91573    1.28751
      H1    14.92255   -9.70706    2.15199
       H     8.65363  -13.48869    2.60963
       O     8.87516  -14.36024    2.22006
      H1     9.86180  -14.42457    2.19608
       H    12.26687  -12.17691    3.67778
       O    11.47041  -11.62606    3.84415
      H1    11.51560  -11.49026    4.82124
       H     8.87792   -9.74708   -0.03651
       O     9.02875  -10.67199    0.29445
      H1     8.58431  -11.10229   -0.43463
       H    12.19589   -5.88842   -0.40874
       O    12.58611   -5.04576   -0.14876
      H1    13.40993   -5.19216    0.28629
       H    14.09588  -12.45227   -1.07784
       O    13.45903  -13.09651   -0.74504
      H1    13.59387  -13.92385   -1.27196
       H    10.11881   -7.78175    2.86881
       O     9.28776   -7.39851    2.51861
      H1     9.19004   -7.65611    1.56042
       H    14.60168  -12.78554   -8.86718
       O    14.88322  -12.31171   -8.10637
      H1    15.78460  -12.02096   -8.51224
       H     7.15257  -12.88390   -0.70571
       O     6.29521  -12.59925   -0.45699
      H1     6.35095  -12.22461    0.35674
       H    14.09106   -8.65232   -1.79206
       O    14.64239   -8.38484   -2.54355
      H1    15.27650   -7.75178   -2.30562
       H    12.38506  -10.73857   -5.08318
       O    12.45641  -11.46927   -5.74334
      H1    12.07113  -11.01817   -6.51046
       H     8.58902  -11.11007    1.95888
       O     8.54110  -11.62921    2.81062
      H1     9.51178  -11.85445    2.93250
       H     6.54870  -15.41681   -3.66293
       O     5.63387  -15.78898   -3.33022
      H1     5.16549  -15.03426   -2.91502
       H    12.18611   -8.07490   -0.95260
       O    11.53133   -7.35473   -1.10892
      H1    11.53485   -7.15618   -2.03526
       H    10.60016  -17.47788   -7.27213
       O    11.11915  -16.95123   -6.65710
      H1    10.52626  -16.17627   -6.38908
       H     8.81868  -12.20464   -8.37916
       O     9.76794  -12.33469   -8.37367
      H1    10.04799  -12.50974   -9.26006
       H    13.61490  -15.33708   -7.54184
       O    12.90570  -15.61958   -8.09949
      H1    12.25107  -15.91050   -7.46908
       H    15.56364  -15.67989   -2.87298
       O    15.04187  -15.17898   -2.29255
      H1    14.27208  -15.63462   -1.99609
       H    12.01187   -9.87502   -3.43003
       O    12.48179   -9.29407   -4.00574
      H1    13.30778   -9.11257   -3.48574
       H    14.52829  -10.51015   -8.26047
       O    14.83558   -9.56199   -8.31951
      H1    15.28664   -9.46437   -7.48074
       H    14.80245  -14.27914   -5.84003
       O    15.25074  -14.89226   -6.42216
      H1    15.96603  -14.44812   -6.82756
       H    14.95605   -6.85828   -5.46953
       O    15.35592   -7.58812   -5.97579
      H1    15.87891   -6.99129   -6.53191
       H     9.61278   -8.66626   -7.36516
       O     9.11917   -7.94062   -7.73293
      H1     9.79354   -7.50435   -8.22755
       H    10.19575  -17.43524   -3.84863
       O     9.23098  -17.29417   -3.87489
      H1     9.15648  -16.34497   -3.73353
       H    13.45622  -12.95752   -4.42938
       O    13.48035  -13.84662   -4.06011
      H1    14.33278  -13.87446   -3.57722
       H    12.55175  -17.56212   -2.04895
       O    12.27297  -16.99112   -1.28385
      H1    11.37403  -16.62150   -1.32007
       H    14.34360   -6.58468   -3.43648
       O    14.27151   -5.80952   -3.98113
      H1    13.32135   -5.61694   -4.12270
       H    10.52428   -9.98120    1.74011
       O    11.34202   -9.49731    1.88379
      H1    11.58221   -9.90078    2.75079
       H    12.82240  -16.77497    0.56730
       O    12.91792  -16.73856    1.51905
      H1    12.17060  -17.25016    1.94383
       H    16.60788   -9.06099   -5.09631
       O    17.31131   -9.68170   -5.13206
      H1    18.14487   -9.15738   -5.12714
       H     9.70706   -7.69662   -0.69884
       O     8.83059   -8.05458   -0.43784
      H1     8.30538   -7.26226   -0.67905
       H    11.45477   -9.73295   -8.21883
       O    10.89432  -10.12627   -7.56392
      H1    10.44380  -10.93281   -7.99977
       H    10.48922  -11.96733    0.13017
       O    10.86053  -12.86993    0.12324
      H1    11.71616  -12.77037   -0.32711
       H     6.13625   -9.99886   -6.61287
       O     5.69815   -9.56960   -5.85716
      H1     6.38924   -9.52174   -5.22488
       H     8.32249   -8.45795   -4.01075
       O     7.84559   -9.28930   -3.82150
      H1     7.15672   -9.17442   -3.20684
       H     8.35765  -14.82740   -7.12371
       O     9.30911  -14.75220   -6.76224
      H1     9.78861  -13.94047   -7.04419
       H    12.22924  -12.46987   -2.96621
       O    11.62659  -11.80870   -2.61646
      H1    10.83777  -11.81451   -3.20185
       H    17.74557  -10.38987   -2.01282
       O    18.33262  -10.52152   -1.26454
      H1    18.57956  -11.46925   -1.16587
       H    11.57981   -7.80459   -4.15515
       O    11.24775   -6.96338   -3.75815
      H1    10.46416   -6.70892   -4.29298
       H     5.95583  -10.56270   -1.33007
       O     5.75129   -9.85702   -1.99735
      H1     5.22586  -10.41420   -2.63371

