153
frame 11 | Written by MDAnalysis XYZWriter (release 2.4.3)
       H    -4.20777   -3.48575  -11.73184
       O    -3.46627   -3.73473  -11.16217
      H1    -2.61969   -3.40699  -11.52018
       H    -5.00493   -3.49300   -5.23418
       O    -4.92809   -2.58746   -4.90477
      H1    -5.70343   -2.13353   -5.38132
       H    -6.95366   -4.34129  -17.11750
       O    -7.17977   -4.43224  -16.16719
      H1    -6.44936   -4.01927  -15.69726
       H    -8.59519  -12.01001  -10.56473
       O    -8.44383  -11.47007  -11.32329
      H1    -7.51055  -11.18381  -11.15857
       H    -1.95609   -2.84688  -15.03469
       O    -1.49936   -3.64624  -15.27551
      H1    -0.84740   -3.83371  -14.53700
       H    -2.21412   -8.12046  -14.92773
       O    -1.32849   -8.46402  -14.96119
      H1    -0.99861   -8.25959  -15.88688
       H     0.11868   -3.66624   -8.81613
       O     0.15655   -2.69949   -9.05093
      H1    -0.54799   -2.33729   -8.52855
       H    -0.55181   -6.76771  -10.12535
       O    -1.00150   -7.62590  -10.46281
      H1    -1.89783   -7.33339  -10.61856
       H    -6.63974   -6.85551   -9.12086
       O    -7.25168   -7.52140   -9.50258
      H1    -7.94565   -7.05335  -10.01087
       H    -9.10150   -6.99768   -4.56484
       O    -8.46381   -6.25020   -4.56535
      H1    -8.49064   -5.88022   -5.43354
       H     1.06797   -5.75924   -9.70243
       O     0.17392   -5.62680   -9.25606
      H1     0.36418   -5.73769   -8.32521
       H    -6.42952  -11.93652  -16.43733
       O    -5.85134  -11.66314  -15.68741
      H1    -6.40263  -11.27734  -15.00946
       H    -8.94332   -5.14277   -7.38600
       O    -8.09935   -4.92919   -6.95793
      H1    -7.40779   -5.08685   -7.62491
       H    -5.61582   -9.56103  -11.60418
       O    -5.92079   -9.94129  -10.74430
      H1    -6.55041   -9.25382  -10.46674
       H    -5.77257    0.14764  -10.45889
       O    -6.01784   -0.76718  -10.43874
      H1    -6.95237   -0.73350  -10.20568
       H    -1.63728   -2.38288   -5.34979
       O    -2.05255   -3.29183   -5.25088
      H1    -3.01079   -3.16916   -5.26777
       H    -9.96663   -6.03415  -12.53943
       O    -9.74725   -6.23059  -11.61314
      H1   -10.68439   -6.12613  -11.26781
       H    -6.57608   -3.19181  -12.24510
       O    -5.73670   -2.78532  -12.54470
      H1    -5.55815   -2.07242  -11.91025
       H    -9.36746  -10.03830  -11.29358
       O    -9.79868   -9.22071  -11.04358
      H1    -9.34527   -8.43950  -11.44441
       H    -7.51675   -8.73608   -8.31509
       O    -7.51085   -9.40635   -7.57984
      H1    -7.05198   -8.94786   -6.86712
       H    -1.51628  -13.72394   -9.44202
       O    -0.93185  -13.62554  -10.20370
      H1    -0.45863  -12.73849  -10.23142
       H   -10.78851   -9.04041   -8.09664
       O   -10.23874   -9.46560   -7.45435
      H1    -9.35129   -9.48374   -7.75149
       H    -7.95798   -6.15636  -16.54718
       O    -8.01431   -7.07985  -16.20438
      H1    -8.04746   -6.93251  -15.28276
       H     2.15680   -8.36950   -9.15822
       O     1.63477   -8.20511   -8.30697
      H1     1.04076   -8.95307   -8.28092
       H     2.46732   -7.75297  -11.19089
       O     2.33408   -6.98802  -11.78131
      H1     1.46971   -7.14059  -12.15341
       H    -7.21638   -7.48868   -4.71465
       O    -6.58848   -8.17279   -4.97849
      H1    -7.15763   -8.95955   -4.82675
       H     0.34017  -11.27330  -11.40351
       O     0.56626  -11.36415  -10.45731
      H1     0.08473  -10.71158   -9.88717
       H    -4.12018  -11.19810  -16.12014
       O    -3.22431  -10.90838  -15.83437
      H1    -3.15244  -10.00002  -16.07245
       H    -5.68462   -4.32071   -8.77141
       O    -5.91347   -5.29161   -8.60847
      H1    -5.41095   -5.54960   -7.83638
       H    -2.00871  -13.50181   -7.51475
       O    -2.66754  -13.99103   -7.92687
      H1    -3.19860  -13.34272   -8.42048
       H    -1.14673   -8.94254   -9.18874
       O    -0.85167   -9.72853   -8.69511
      H1    -1.55717   -9.96995   -8.02348
       H     0.73692   -0.33999  -11.28856
       O     0.26705   -0.74625  -12.06130
      H1    -0.17532   -1.61948  -11.74870
       H    -3.40033  -12.44015  -11.95318
       O    -3.04137  -11.57732  -11.73181
      H1    -2.07472  -11.74843  -11.92754
       H    -2.12639   -0.91154   -7.37143
       O    -1.88966   -0.95955   -8.33346
      H1    -2.59661   -1.45906   -8.77742
       H    -4.20572   -7.02077  -10.52839
       O    -3.67819   -7.52477  -11.08441
      H1    -4.13326   -7.77022  -11.89122
       H    -8.54440   -3.16960   -7.16321
       O    -9.12547   -2.44301   -7.41875
      H1    -8.74328   -2.08970   -8.25817
       H    -4.98988   -5.55569   -5.21042
       O    -4.61298   -5.87466   -6.04470
      H1    -4.27169   -6.76603   -5.84613
       H    -3.94841   -9.66002  -13.27032
       O    -4.63685   -9.01331  -13.13953
      H1    -4.92580   -8.71419  -14.02433
       H    -0.52691   -3.16410  -10.83323
       O    -0.94102   -3.06713  -11.71112
      H1    -0.35045   -3.62150  -12.21986
       H    -9.11507   -3.30432  -12.19806
       O    -8.33363   -3.84732  -12.28285
      H1    -8.61407   -4.79239  -12.27797
       H    -4.73289   -1.58859   -9.60196
       O    -3.95848   -2.09147   -9.25947
      H1    -3.78572   -2.72884   -9.92815
       H    -2.80698   -4.77605  -15.41243
       O    -3.56155   -5.33835  -15.66790
      H1    -3.50790   -5.41108  -16.58403
       H    -5.04675   -6.93314  -15.72816
       O    -5.39922   -7.78167  -15.65947
      H1    -6.30244   -7.77962  -15.95842
       H     1.47336   -6.12776   -6.73907
       O     0.99344   -5.31558   -6.62657
      H1     0.44835   -5.44656   -5.86358
       H    -4.06125   -8.42784   -9.41162
       O    -4.40926   -8.70862   -8.56884
      H1    -4.96072   -9.46319   -8.88333
       H    -0.55643   -7.44468  -12.10691
       O    -0.21121   -7.20912  -12.98679
      H1    -0.57643   -7.71005  -13.70931
       H     0.14886   -5.54032  -13.54151
       O     0.46368   -4.60513  -13.71465
      H1     1.28637   -4.69249  -14.19773
       H    -6.87600  -11.03566   -7.98805
       O    -6.39218  -11.83200   -8.20286
      H1    -7.08229  -12.40214   -8.51301
       H    -3.68182  -11.77459  -10.07913
       O    -3.93957  -11.91404   -9.12171
      H1    -4.87310  -11.66056   -9.19281
       H    -3.69929   -9.12585   -5.29243
       O    -3.30210   -8.41010   -5.83023
      H1    -3.79927   -8.64407   -6.67870
       H    -0.43483  -11.32204  -13.81681
       O    -0.14957  -10.75493  -13.05943
      H1    -0.72096   -9.99018  -12.95007

