153
frame 11 | Written by MDAnalysis XYZWriter (release 2.4.3)
       H     8.88386   -9.12350  -14.06750
       O     8.11310   -9.28327  -13.46528
      H1     8.02627  -10.27517  -13.47308
       H    16.93095  -12.15066  -17.61661
       O    17.63446  -11.88245  -17.04198
      H1    17.92582  -11.00749  -17.39202
       H    13.64223   -7.07768  -18.71352
       O    13.58659   -7.56546  -17.87733
      H1    14.07225   -8.37962  -18.15162
       H    10.31562   -9.14108  -10.61118
       O    11.09579   -8.86362  -10.16837
      H1    11.63625   -8.65157  -10.90218
       H     7.74986   -8.66614  -11.76235
       O     7.58354   -8.29764  -10.89583
      H1     8.16610   -7.56477  -10.71026
       H     8.66095  -19.97488  -17.96801
       O     8.29819  -19.92692  -17.02128
      H1     8.56361  -19.08188  -16.70819
       H     4.59212  -12.93109  -13.65829
       O     3.70881  -12.82028  -13.20111
      H1     3.40876  -11.90765  -13.24566
       H     3.71085  -11.56252  -17.70156
       O     3.01106  -11.15778  -18.24286
      H1     2.18277  -11.61345  -18.17846
       H     7.60237   -6.03025  -18.69895
       O     6.97163   -6.52579  -19.21990
      H1     6.84940   -6.06584  -20.04901
       H    14.36462  -13.80523  -16.87109
       O    13.88304  -14.48639  -16.37042
      H1    14.05340  -15.28256  -16.81795
       H     8.37201  -14.65604  -18.81800
       O     8.21056  -14.68475  -17.83983
      H1     8.78385  -13.90681  -17.61993
       H    11.25793  -17.14397  -15.97633
       O    11.21260  -17.56295  -16.87713
      H1    11.40261  -18.53869  -16.81033
       H    11.03526   -6.56087  -16.84260
       O    10.63145   -6.90430  -17.62978
      H1     9.96187   -6.32595  -17.97498
       H     9.22254   -8.68768  -16.13172
       O     9.85044   -8.49172  -15.41746
      H1     9.79548   -7.53768  -15.16883
       H     4.21984   -9.13753  -17.93299
       O     4.32372   -8.24030  -18.27591
      H1     5.20870   -7.88877  -18.13687
       H     9.57945  -14.74551  -10.21476
       O     8.90122  -14.04494  -10.28861
      H1     8.20845  -14.38564  -10.90417
       H    13.02367  -17.26239  -17.59581
       O    13.92968  -17.00725  -17.46135
      H1    14.26771  -17.39866  -16.66358
       H    12.17289  -10.50863   -9.87426
       O    12.67297  -11.26279   -9.50255
      H1    12.76221  -11.91322  -10.18636
       H    11.66595   -8.60551  -15.69019
       O    12.55130   -8.29605  -15.50194
      H1    12.88638   -8.05632  -16.33092
       H    13.02164  -11.51013  -19.11405
       O    13.36901  -10.98189  -18.41164
      H1    12.73726  -10.27451  -18.23231
       H    10.37938  -12.00693  -16.24571
       O    10.20663  -12.22131  -17.16199
      H1    10.81698  -12.96220  -17.29628
       H    14.20245  -18.31200  -12.39536
       O    14.24423  -17.38713  -12.73322
      H1    13.35976  -17.08028  -12.85850
       H     7.56621  -15.80519  -12.55598
       O     6.95973  -15.24528  -12.03426
      H1     6.71203  -15.76922  -11.27277
       H    14.66884  -10.17792  -19.23358
       O    15.31814   -9.79274  -19.78578
      H1    16.14480  -10.31300  -19.64565
       H     6.75066   -8.76883  -14.76940
       O     6.12344   -8.30371  -15.32629
      H1     5.34642   -8.08518  -14.76026
       H    13.52888  -14.18729  -11.04702
       O    13.56499  -13.28831  -11.36947
      H1    14.19004  -13.34724  -12.09105
       H    14.59226  -16.11612  -18.95527
       O    14.79122  -15.41312  -19.59449
      H1    15.55699  -15.64312  -20.18024
       H    17.04726  -14.44553  -17.67934
       O    17.56828  -15.24699  -17.74859
      H1    18.12641  -15.26809  -16.94346
       H     6.99880   -9.19418  -16.78685
       O     7.88399   -9.49988  -17.12433
      H1     7.71245   -9.50929  -18.07829
       H     9.81747  -13.03333  -11.57496
       O    10.14196  -12.19650  -11.96197
      H1    10.82594  -12.41436  -12.60914
       H    15.14634  -10.38505  -12.04215
       O    14.98552   -9.92311  -11.24823
      H1    15.26540  -10.47800  -10.53449
       H    10.37545  -12.94211  -14.40097
       O    11.24958  -13.30950  -14.30313
      H1    11.82603  -12.53972  -14.35504
       H    12.47459   -6.33205  -13.20817
       O    12.28622   -5.96807  -14.10286
      H1    12.52344   -6.77503  -14.55546
       H     9.05980  -17.29360  -16.77127
       O     8.46537  -17.45074  -16.05498
      H1     7.62715  -17.30242  -16.54261
       H    15.22276  -13.85792  -18.69991
       O    15.51157  -13.14362  -18.08664
      H1    14.74891  -12.53013  -17.92130
       H    10.26533   -5.58007  -13.59813
       O     9.39176   -5.70225  -14.12294
      H1     8.80749   -5.16874  -13.54492
       H     7.04679  -11.38709  -17.01432
       O     6.11274  -11.52925  -17.25017
      H1     5.88920  -12.44097  -16.91170
       H    13.72850   -8.53271  -11.77661
       O    13.25131   -7.64815  -11.90948
      H1    13.72588   -7.07628  -11.21611
       H    14.01689  -11.30883  -14.14323
       O    13.08286  -11.15080  -14.23352
      H1    12.92514  -10.35007  -14.74326
       H    17.36576   -9.36521  -15.12086
       O    16.41623   -9.68559  -15.21134
      H1    16.02614   -8.96016  -15.66972
       H    10.36602  -16.45886  -14.11877
       O    11.19819  -16.19952  -14.59234
      H1    11.08735  -15.24722  -14.81860
       H     5.99070  -14.06206  -14.79381
       O     6.31699  -13.54529  -14.04877
      H1     6.54805  -14.22746  -13.32397
       H     5.21132  -16.52883  -13.93416
       O     5.00696  -17.16727  -14.60899
      H1     5.12014  -16.70619  -15.52177
       H    10.85393   -8.82415  -18.04755
       O    11.06098   -9.69958  -18.40835
      H1    10.60464  -10.38227  -17.80507
       H    16.47236  -15.51603  -14.59897
       O    15.98405  -14.79050  -14.15338
      H1    15.26044  -14.72677  -14.80217
       H     8.87598  -12.00307  -13.11560
       O     8.58129  -12.11722  -14.01652
      H1     7.68416  -12.61157  -13.94466
       H    11.33016  -15.45948  -18.01048
       O    11.05606  -14.80247  -18.62795
      H1    10.37959  -15.30114  -19.03356
       H     5.98873  -17.89300  -18.00367
       O     5.91687  -17.17418  -17.32666
      H1     5.78420  -16.32939  -17.85038
       H    16.12639  -12.60966  -13.67649
       O    15.82326  -11.70587  -13.50130
      H1    16.12463  -11.19383  -14.29066
       H     6.41273  -14.37323  -17.42369
       O     5.54362  -14.40463  -17.00695
      H1     4.84976  -14.62276  -17.66822
       H     8.78533  -17.50869  -13.13337
       O     8.74201  -16.64835  -13.50219
      H1     8.46566  -16.72422  -14.47491

