153
frame 7 | Written by MDAnalysis XYZWriter (release 2.4.3)
       H     8.65229   16.44477    3.32088
       O     8.62650   17.38902    3.62644
      H1     8.47659   17.40523    4.58649
       H    16.62317   14.76759   -3.13701
       O    16.04475   14.86187   -3.87906
      H1    15.25065   14.42919   -3.60096
       H     7.02165   11.17557   -1.35179
       O     6.23804   10.62017   -1.19843
      H1     5.92712   10.32211   -2.03626
       H     3.60092   18.99163    0.35250
       O     2.93302   19.22441    0.98798
      H1     2.12187   18.73394    0.84147
       H    14.02648   16.72554    2.97119
       O    14.20572   15.83161    2.67014
      H1    15.12975   15.78002    2.50653
       H    14.88014   11.91998   -3.87069
       O    14.28327   12.07746   -4.60437
      H1    13.79508   11.25385   -4.78501
       H     8.81162    9.78786    3.84554
       O     9.56329    9.80746    3.17271
      H1     9.57489   10.72027    2.93846
       H     7.60207   12.58079   -5.86421
       O     8.49314   12.74579   -5.54528
      H1     8.37559   13.60213   -5.09469
       H    14.10685   19.01396   -1.26556
       O    14.57425   19.61792   -1.79442
      H1    14.82437   19.08512   -2.61805
       H     4.45924   13.32387    0.10005
       O     4.21324   12.34140    0.09409
      H1     4.92414   11.98818   -0.47054
       H    10.38706   11.36912   -3.30368
       O     9.41004   11.21032   -3.42776
      H1     9.21012   11.84765   -4.17367
       H    10.75457   18.18815   -6.71593
       O    11.12487   18.61848   -7.54899
      H1    11.19079   17.92763   -8.24740
       H    13.04754   19.17147    2.75358
       O    13.86461   19.14829    2.29801
      H1    14.35892   19.88869    2.65693
       H    10.02453    9.75312    0.87640
       O     9.76207    9.84640   -0.06921
      H1     9.54106    8.96196   -0.37758
       H     7.07589   18.32137   -3.45714
       O     6.67372   17.41883   -3.19019
      H1     6.91089   17.24255   -2.22725
       H    11.03868   17.82310   -2.13093
       O    11.10702   18.48340   -2.87158
      H1    11.96082   18.87417   -2.71865
       H     3.24432   16.85442   -2.73225
       O     3.31395   15.97528   -2.48269
      H1     3.88747   15.87929   -1.70305
       H    11.46662   11.03844   -1.05290
       O    11.78683   10.70661   -1.91131
      H1    11.51289    9.81096   -1.84657
       H     8.09734   15.57341    0.25208
       O     7.77595   15.26931   -0.63252
      H1     7.66094   14.33038   -0.55391
       H     7.72614   18.05456   -8.19185
       O     7.93081   17.19240   -7.85182
      H1     8.53912   16.87012   -8.52323
       H     5.91102   18.66879   -0.79167
       O     4.95582   18.88768   -0.70948
      H1     4.57410   18.80501   -1.55493
       H    12.46622   15.74976    1.50749
       O    11.84825   15.50579    0.82134
      H1    11.55646   16.31670    0.36403
       H    10.57578   13.46869    4.98129
       O    10.65066   12.56331    4.59470
      H1    11.37641   12.58389    3.97450
       H    12.55482   14.44359   -0.31094
       O    12.96240   13.72601   -0.87663
      H1    12.25254   13.73439   -1.62337
       H    16.62293   17.49585    1.62840
       O    16.41711   18.38965    1.39774
      H1    15.43004   18.49983    1.50147
       H     8.62504   14.74467    6.86903
       O     9.14345   14.68130    6.01583
      H1     8.48270   14.43269    5.35418
       H     6.92608   14.51767   -3.70980
       O     7.78035   14.99274   -4.02043
      H1     7.60362   15.94267   -4.10099
       H    10.05078   16.20735   -0.99715
       O    10.21752   17.05961   -0.63953
      H1     9.42704   17.63850   -0.51462
       H     6.55054   14.57025    3.39820
       O     7.15463   14.94481    4.01236
      H1     6.59117   15.08687    4.72490
       H    10.79930   15.01951   -3.69950
       O    10.48647   14.60243   -2.83532
      H1     9.48319   14.64037   -2.93247
       H     8.67627   12.28213   -1.97144
       O     8.47344   12.19453   -1.02245
      H1     8.97724   11.42788   -0.84576
       H     4.50325   18.23042   -6.22098
       O     5.02541   18.53980   -5.45467
      H1     5.30501   17.70821   -5.09762
       H    12.25492   18.89007   -0.07045
       O    13.06371   18.32227   -0.09980
      H1    13.46856   18.72196    0.76450
       H    11.10444   17.86778    4.71358
       O    11.12036   18.56321    4.00955
      H1    10.39530   18.18915    3.49110
       H     6.19289   19.44986    3.12500
       O     6.99766   19.27500    2.60261
      H1     7.54747   18.70312    3.16567
       H    10.79754   14.75372   -6.22903
       O    11.00981   15.35510   -5.47247
      H1    10.59493   16.21144   -5.47213
       H    11.30257   16.99651    6.95136
       O    11.06474   16.56674    6.14414
      H1    10.27773   16.08100    6.29683
       H     4.49669   14.34862   -3.97953
       O     5.25339   13.76789   -4.20214
      H1     5.32747   13.80032   -5.13812
       H     7.49820   18.62103    0.74664
       O     7.84039   18.48201   -0.14565
      H1     8.07845   19.40106   -0.40065
       H    13.13485   19.63295   -5.88972
       O    13.67961   18.86315   -5.57169
      H1    13.42084   18.19324   -6.20214
       H    10.10482   18.23365   -4.44443
       O     9.84901   17.90039   -5.27077
      H1     9.05025   18.41299   -5.56700
       H    12.04104   12.45102    1.65787
       O    11.68525   12.20950    0.75945
      H1    12.08220   12.89129    0.16439
       H     7.48390   11.74989    1.96419
       O     6.59201   11.39042    2.08278
      H1     6.53427   10.62954    1.53833
       H     4.34249   15.33431    0.61347
       O     4.70866   15.13247   -0.26505
      H1     5.68614   15.21929   -0.24962
       H    14.64158   13.13685   -0.45019
       O    15.54504   12.73033   -0.55335
      H1    15.47361   11.82285   -0.84469
       H    10.02128   15.49024    1.35797
       O     9.10912   15.33360    1.69896
      H1     9.06275   14.36432    1.91375
       H    13.47407   13.89182    3.45263
       O    13.03825   13.06074    3.14901
      H1    13.63075   12.28576    3.17119
       H    14.72703   17.74956   -4.34679
       O    15.45838   17.69166   -3.67701
      H1    15.68381   16.76760   -3.57668
       H     9.79914   12.70498    2.91790
       O     9.23347   12.53428    2.10422
      H1     9.75489   12.58400    1.24312
       H    13.90389   15.47103   -6.72433
       O    13.41406   16.28872   -6.53099
      H1    12.61979   15.96506   -6.12566
       H     5.23539   12.44311    2.64902
       O     4.77910   13.17346    3.09782
      H1     4.05256   12.79781    3.58850

