153
frame 2 | Written by MDAnalysis XYZWriter (release 2.4.3)
       H    -4.70537   -3.46814  -11.29291
       O    -4.41066   -4.12349  -10.65413
      H1    -3.64690   -3.76883  -10.15686
       H    -7.07264    4.50861  -18.50858
       O    -6.31353    4.49940  -17.92965
      H1    -5.56764    4.09701  -18.38570
       H    -9.16062   -4.38907  -15.94462
       O    -9.87437   -4.95858  -16.26693
      H1   -10.26015   -4.62156  -17.07049
       H    -8.19869   -0.90029  -16.55574
       O    -8.90836   -1.52716  -16.82667
      H1    -9.75003   -1.12403  -16.65515
       H    -3.76492   -1.77808  -17.01127
       O    -2.98172   -2.28658  -16.88977
      H1    -2.87159   -2.48009  -15.88231
       H    -0.42002    5.59976  -13.82831
       O    -0.76660    4.75820  -14.14902
      H1    -1.09856    4.22568  -13.42415
       H    -4.23168    6.77227  -11.26434
       O    -4.79357    6.06117  -11.64589
      H1    -4.89501    6.15697  -12.59410
       H   -11.88001   -3.89264  -18.88671
       O   -11.18173   -4.56684  -18.82653
      H1   -10.78045   -4.65001  -19.67758
       H    -6.01058    6.59688  -17.57363
       O    -6.09256    7.52982  -17.68061
      H1    -5.69678    7.93274  -16.90823
       H    -6.33248    4.93629  -15.24465
       O    -5.81142    5.62775  -14.84931
      H1    -4.86120    5.45334  -15.00767
       H    -2.38518   -2.74049  -13.42994
       O    -2.03400   -3.07258  -14.31069
      H1    -1.58888   -3.96430  -14.15889
       H     0.38755    3.69875  -18.06925
       O     0.35080    4.21116  -18.95928
      H1     1.30797    4.37603  -19.11369
       H   -12.03567   -5.17164  -14.00501
       O   -11.83919   -4.31410  -14.42931
      H1   -11.14855   -4.50023  -15.11874
       H    -7.88768    0.71139  -11.25060
       O    -8.37700    0.00059  -11.64767
      H1    -9.22876    0.00892  -11.14552
       H    -8.80696   -2.11307  -18.80867
       O    -8.62449   -1.95083  -19.71747
      H1    -8.51604   -2.83268  -20.05193
       H    -5.65712    2.08646  -19.32387
       O    -4.77373    2.26368  -19.00019
      H1    -4.85558    2.30198  -18.00442
       H    -7.23199    6.86632  -13.96140
       O    -7.98691    7.55547  -13.93160
      H1    -8.38085    7.43183  -13.05955
       H    -3.79554    5.22904  -19.33112
       O    -3.49368    4.53068  -18.81181
      H1    -3.94413    3.71235  -19.14552
       H    -6.64755   -2.85332  -11.22407
       O    -6.70098   -2.04086  -10.75597
      H1    -7.08892   -1.38433  -11.33363
       H   -10.32128   -2.36285  -12.57883
       O    -9.90946   -3.14297  -12.98375
      H1   -10.63233   -3.59225  -13.45249
       H    -8.17930   -2.72906  -15.37940
       O    -7.87787   -3.49311  -14.85609
      H1    -8.40486   -3.36454  -14.04029
       H    -3.88065   -5.57888  -17.53311
       O    -4.32835   -4.81768  -17.15615
      H1    -3.72535   -4.13200  -16.86874
       H    -0.41182   -0.32128  -13.54953
       O    -1.03250    0.40003  -13.14634
      H1    -1.77131   -0.09997  -12.78377
       H    -9.91698    4.57188  -14.57074
       O    -9.81903    3.95621  -15.30937
      H1    -9.73109    3.05537  -14.84855
       H    -4.99135   -1.08654  -18.97295
       O    -4.83023   -0.49921  -18.26637
      H1    -4.53655    0.30382  -18.66593
       H    -7.26789   -6.19800  -17.52821
       O    -7.67834   -6.50900  -16.67063
      H1    -8.43962   -5.88089  -16.59244
       H    -5.97126    0.26379  -16.73655
       O    -6.65475    0.20729  -16.07570
      H1    -6.76062    1.09189  -15.70184
       H    -3.15896    3.17649  -10.96007
       O    -2.81803    3.86714  -11.59773
      H1    -3.47729    4.62648  -11.52047
       H    -8.65218    5.33194  -19.81275
       O    -8.53223    4.46354  -19.52711
      H1    -9.28371    4.25256  -18.93581
       H    -4.20454   -1.49205  -12.77399
       O    -3.40956   -1.34992  -12.23851
      H1    -3.75976   -0.87147  -11.53180
       H    -0.43581    2.62267  -15.96213
       O     0.30333    3.13426  -16.25714
      H1     0.24442    4.00223  -15.77001
       H     1.12527   -2.36044  -13.77510
       O     0.44609   -1.84898  -14.25928
      H1    -0.34211   -2.47630  -14.21135
       H    -9.31642    1.09727  -13.02396
       O    -9.84604    1.83595  -13.37526
      H1    -9.97600    2.45174  -12.65718
       H    -2.40413    6.04110  -16.08294
       O    -2.97322    5.37577  -15.63802
      H1    -2.35398    4.93191  -15.00922
       H    -4.17407    0.85132   -9.64521
       O    -4.26158    1.81740   -9.87546
      H1    -5.16982    2.03207   -9.95373
       H    -6.98903    3.54187  -16.51780
       O    -7.23002    3.51663  -15.58733
      H1    -8.22732    3.63080  -15.53140
       H    -1.31910    0.35979  -16.10713
       O    -1.53443    1.23396  -15.63770
      H1    -1.44405    0.89445  -14.72933
       H    -2.99838    2.05885  -16.07935
       O    -3.80579    2.54444  -16.43567
      H1    -3.54810    3.47433  -16.44754
       H     0.11016   -1.16200  -17.33058
       O    -0.76536   -0.75114  -17.27222
      H1    -1.58375   -1.39784  -17.21213
       H    -3.50144   -5.37660  -11.55344
       O    -2.90391   -5.77342  -12.21196
      H1    -3.24610   -5.44598  -13.08967
       H   -11.46654   -0.59145  -17.50917
       O   -11.31014   -0.62033  -16.54422
      H1   -12.00051   -1.20662  -16.12388
       H    -4.36376   -5.46324  -15.58013
       O    -4.32995   -5.76449  -14.61292
      H1    -5.27774   -5.91523  -14.44680
       H    -2.20837    6.20775  -18.88675
       O    -1.31027    6.44414  -19.18880
      H1    -0.77731    5.60664  -19.06878
       H    -8.43747   -4.03428  -11.87422
       O    -7.55894   -4.43116  -11.81552
      H1    -7.68530   -5.05341  -11.05333
       H   -11.71583    0.16956  -15.12394
       O   -12.06494    0.55565  -14.28686
      H1   -11.36223    1.18493  -13.95554
       H    -6.18709   -2.77404  -14.29615
       O    -5.47800   -2.56537  -13.63658
      H1    -5.03140   -3.39400  -13.78321
       H    -5.98046   -5.05499  -18.23246
       O    -6.51725   -5.54191  -18.92836
      H1    -5.86407   -6.07598  -19.40819
       H    -7.17775   -5.70042  -13.02980
       O    -7.18486   -6.46069  -13.67814
      H1    -7.54193   -6.16422  -14.51638
       H    -0.17564   -3.62355  -17.12909
       O    -0.72219   -4.40583  -17.02564
      H1    -0.36068   -4.98602  -17.70746
       H    -7.72953    2.59397  -10.06462
       O    -6.98031    2.05231  -10.39543
      H1    -6.88577    2.44256  -11.31182
       H    -6.68631    3.48193  -13.46951
       O    -6.20445    3.11816  -12.71132
      H1    -5.25292    3.18610  -12.89335

