153
frame 4 | Written by MDAnalysis XYZWriter (release 2.4.3)
       H     9.32184   18.48959   11.51437
       O     8.85860   17.91452   10.80945
      H1     8.00128   17.67645   11.16595
       H     8.62889   16.46635    2.97651
       O     7.88563   16.65669    3.52017
      H1     7.21044   16.00208    3.54804
       H     2.28342   19.69093   -0.03994
       O     2.08617   18.74824    0.11752
      H1     1.18330   18.68167    0.49446
       H     7.59035   15.22713    8.63852
       O     7.60151   14.36568    9.11070
      H1     7.14454   13.76861    8.53092
       H    10.51193   18.91683    0.67663
       O    11.38317   19.05430    1.19046
      H1    11.26989   19.57474    1.99301
       H    -2.82790   20.10580    2.77662
       O    -1.97866   19.65929    2.80412
      H1    -1.99207   18.93181    3.40767
       H     3.75946   19.62586    4.00196
       O     4.05159   18.70812    4.00376
      H1     4.17164   18.35551    3.04086
       H    -1.66447   16.07566    9.05574
       O    -1.49723   16.73096    8.41442
      H1    -1.17600   16.13158    7.69483
       H     3.20237   18.17315    5.69657
       O     3.00105   17.91800    6.60569
      H1     2.15276   18.20997    6.76448
       H     5.99484   18.34999   11.57971
       O     5.83221   17.61562   12.14186
      H1     5.80591   16.77023   11.65514
       H     9.74242   20.15974    8.83948
       O     9.18592   19.42039    8.54977
      H1     9.15625   18.84603    9.35119
       H    12.66197   17.76215    2.23115
       O    12.55565   17.02562    2.79928
      H1    12.05928   17.50026    3.49476
       H     3.30076   15.01503    6.76952
       O     3.73739   15.37467    7.60018
      H1     3.73476   16.30835    7.31280
       H    10.12429   16.62672   10.63574
       O    10.71424   15.95472   10.44809
      H1    11.62032   16.33372   10.64728
       H     1.20320   18.74538    3.94422
       O     1.14684   17.79752    3.94333
      H1     1.99042   17.39859    3.83238
       H     4.74619   14.21452    1.75305
       O     4.46197   14.65324    0.95996
      H1     4.24879   15.52457    1.17357
       H    11.19567   16.77778    8.66977
       O    11.34127   17.53490    8.13897
      H1    10.60754   18.16184    8.31628
       H     3.58272   11.45290    7.39570
       O     2.72390   11.77570    7.20802
      H1     2.19343   11.66129    8.01321
       H    -0.62063   13.12034    8.52429
       O    -0.19902   13.98691    8.77862
      H1     0.04799   14.38573    7.91395
       H     7.41065   15.29561   -0.95179
       O     8.19740   14.82744   -0.62625
      H1     8.73943   15.33280   -0.03596
       H     1.97400   13.75447    4.74996
       O     2.14796   14.11312    5.61624
      H1     2.36917   13.36256    6.16325
       H    -0.77921   15.64616    2.12828
       O    -0.00157   16.18155    1.99390
      H1     0.14333   16.78846    2.67830
       H     6.05319   18.25898   -1.27179
       O     5.54686   19.11424   -1.14477
      H1     4.65915   19.15044   -1.55427
       H    10.08843   14.45350    5.70552
       O    10.52330   13.58827    5.42667
      H1    11.42844   13.61577    5.79483
       H     7.83548   17.65825    8.12579
       O     7.36882   16.92936    7.70759
      H1     6.74200   17.36322    7.11125
       H    -0.99606   19.11174    1.37355
       O    -0.51645   18.64465    0.69600
      H1    -0.61338   17.69124    0.84469
       H     0.28155   18.52378   10.35225
       O     0.59332   17.74878    9.86523
      H1    -0.21804   17.27174    9.66275
       H    -0.72799   15.19229    5.94408
       O     0.00251   15.60899    6.40946
      H1     0.86515   15.12833    6.16737
       H     8.80479   16.14928    6.58784
       O     9.06439   15.79992    5.73349
      H1     8.56245   16.23086    5.03579
       H     1.09947   16.50616   10.98861
       O     1.49025   15.88784   11.65857
      H1     0.87891   15.16655   11.80986
       H     5.60720   13.86237    3.93668
       O     6.26367   14.39514    4.33855
      H1     6.31899   14.10450    5.23668
       H     2.27787   14.92008   10.36126
       O     2.93273   14.38892    9.86260
      H1     3.09560   14.79751    8.95547
       H     5.86142   11.29354    4.02178
       O     6.14002   10.41532    4.37876
      H1     5.45191    9.71731    4.17673
       H     2.23738   12.51947    2.63278
       O     2.68493   11.90532    1.99223
      H1     2.18584   12.02403    1.20668
       H    11.65854   19.78432    4.70582
       O    10.90355   19.35821    4.27903
      H1    10.93392   18.49924    4.74737
       H     6.48349   18.27422    0.74016
       O     6.69102   17.33987    0.65466
      H1     6.88687   16.82295    1.44367
       H     0.31565   18.35616    8.14861
       O     0.20478   18.66758    7.24653
      H1    -0.20925   17.95613    6.76808
       H    10.24529   11.57085    7.71475
       O     9.62133   11.56890    6.93313
      H1     9.90200   12.38064    6.41893
       H    11.40845   17.19638    6.37968
       O    11.51067   16.73244    5.51128
      H1    10.69663   16.29171    5.32799
       H     8.58090   17.70869    0.07248
       O     9.30867   18.25318   -0.24441
      H1     8.88676   19.08454   -0.46312
       H     4.83297   17.34749    0.70216
       O     4.10917   17.34148    1.34448
      H1     3.30113   17.66727    0.92838
       H     6.28366   14.92046   10.08585
       O     5.54423   15.47712   10.49224
      H1     4.63106   15.36941   10.14415
       H     5.88510   12.63604    7.04722
       O     6.10368   13.54302    6.92589
      H1     5.26018   13.93578    7.23832
       H     0.61951   13.20355    2.79810
       O     1.28339   13.84618    2.98304
      H1     0.92080   14.70565    2.76658
       H    -0.60331   17.41338    5.09278
       O    -1.49398   17.67917    5.26485
      H1    -2.04468   16.82649    5.14612
       H     8.58410   12.81206    1.36915
       O     7.73423   12.58527    1.01641
      H1     7.50052   13.32613    0.39518
       H     4.26690   13.41352   -0.60904
       O     3.97565   12.77277   -1.28146
      H1     4.79686   12.48366   -1.71150
       H    10.87375   16.38641    1.96433
       O    10.00393   15.96751    1.79534
      H1     9.87239   15.09490    2.17981
       H     5.47888   18.58757    4.83758
       O     6.12784   18.57399    5.57882
      H1     6.84051   18.04530    5.12616
       H    10.00279   13.24493    3.46701
       O     9.96333   13.31498    2.45703
      H1    10.88351   13.21374    2.13388
       H     5.68003   12.60918    1.96296
       O     5.12086   12.57962    2.77059
      H1     4.28669   12.27633    2.39480

