153
frame 6 | Written by MDAnalysis XYZWriter (release 2.4.3)
       H    11.77699   -5.79963   10.02372
       O    10.95431   -5.77837   10.53829
      H1    10.63234   -4.87438   10.64859
       H     9.39789   -0.94573   16.01508
       O     9.34180   -1.82954   16.49017
      H1     8.99917   -2.50470   15.95203
       H     8.56055    3.39000   16.83520
       O     7.66119    3.04688   16.86438
      H1     7.22436    3.22812   15.98780
       H     3.39926   -2.43253   12.74747
       O     3.51596   -2.99501   11.95370
      H1     2.87501   -2.64424   11.33773
       H     7.40678   -2.25080   11.15496
       O     7.18643   -1.56893   10.49871
      H1     6.54676   -1.97490    9.86251
       H     0.30874   -0.32531   18.54268
       O     0.62918   -0.68972   17.70200
      H1     1.32967   -1.29918   18.01973
       H     1.78812   -7.23686   13.72348
       O     2.09294   -6.73382   14.45197
      H1     3.02206   -6.55369   14.22725
       H     8.14750   -8.63400   13.74355
       O     8.71127   -7.99460   13.28241
      H1     9.00625   -8.39353   12.40630
       H    11.09586   -6.18925   14.51417
       O    11.36504   -6.96690   14.01577
      H1    10.50977   -7.38400   13.80002
       H    13.25487   -1.77425   13.13417
       O    12.92437   -0.89802   13.41255
      H1    12.06257   -0.92197   12.99746
       H    11.08826   -9.52249   16.48093
       O    10.69324   -9.25930   17.31811
      H1    10.74814  -10.04950   17.84940
       H     7.08502   -3.74323   16.63700
       O     7.05158   -3.55769   15.70635
      H1     6.90675   -4.44685   15.33885
       H     4.34028    2.88153   14.79040
       O     4.44578    1.95777   14.62404
      H1     3.71508    1.62238   15.19336
       H     5.24810   -0.98214   16.82696
       O     5.85399   -0.85350   16.06634
      H1     6.20179   -1.77021   15.95343
       H     8.43527   -6.32835   11.65097
       O     7.72710   -5.69556   11.55822
      H1     7.84385   -5.35051   10.64610
       H     6.70069  -11.63744   18.87088
       O     6.47737  -11.17653   18.03739
      H1     7.19456  -10.59155   17.80012
       H     3.74484   -9.96010   14.58015
       O     4.27171   -9.50220   13.89661
      H1     3.96825   -9.77576   13.02745
       H     9.93687   -5.20354   16.75200
       O    10.16044   -4.81021   15.90872
      H1    10.99851   -4.39235   15.91648
       H     3.22565   -0.78220   13.59037
       O     3.54431   -1.31447   14.31660
      H1     4.37948   -0.96480   14.60279
       H     9.03554    0.44904   13.65557
       O     8.96980    0.15177   12.73361
      H1     8.07008    0.31658   12.50570
       H     0.16499   -1.94448   14.83344
       O     0.24776   -0.98862   14.94300
      H1     0.58176   -0.83787   15.83457
       H     7.01690    2.14564   13.86720
       O     7.34655    3.03148   13.98781
      H1     6.56129    3.58350   14.00059
       H     3.47864   -8.76232   19.87108
       O     2.55582   -8.88545   19.56662
      H1     2.58280   -8.70735   18.58104
       H     2.69095    1.63913   19.49397
       O     3.54887    1.39102   19.12431
      H1     3.98730    2.30259   18.95131
       H     6.23753   -3.08097   18.38204
       O     7.09846   -3.58905   18.33965
      H1     7.91677   -3.14387   18.51981
       H    11.07545   -1.72084   16.44957
       O    12.06987   -1.63887   16.37827
      H1    12.25567   -0.79867   16.00919
       H     7.67861   -3.76978   12.35798
       O     7.16795   -3.05834   12.83513
      H1     7.21128   -3.41794   13.72602
       H     4.58660   -4.45069   11.58455
       O     4.76163   -5.35422   11.27706
      H1     5.66424   -5.49362   11.46186
       H     4.67007   -6.39803   12.68732
       O     4.70135   -6.82003   13.57356
      H1     4.81999   -7.78356   13.61281
       H     4.95795   -7.47302   19.14751
       O     4.65072   -6.98425   18.33687
      H1     5.53658   -6.73561   17.97614
       H     1.66743    1.83514   16.12056
       O     2.54603    2.01368   16.57167
      H1     2.51073    1.56430   17.38307
       H     1.08540   -4.15500   13.44056
       O     0.85108   -4.33784   14.38092
      H1     1.15181   -5.27919   14.47870
       H     6.29718   -0.63555   12.32617
       O     6.25462    0.25958   12.53343
      H1     5.69407    0.35372   13.29986
       H     8.71167   -5.62740   20.24045
       O     9.35485   -6.20251   19.70092
      H1     8.80516   -6.38532   18.92071
       H     0.99536   -6.26907   18.85110
       O     0.64249   -6.95499   19.45518
      H1     1.37933   -7.42277   19.77381
       H    -0.39843   -3.98986   17.96118
       O     0.15576   -4.64352   17.47681
      H1    -0.29177   -5.30003   16.91170
       H    12.81402   -3.13381   16.17019
       O    13.09546   -4.04699   15.92750
      H1    13.49858   -4.50012   16.72761
       H     7.65800   -8.59203   16.83161
       O     8.06426   -9.41143   16.60985
      H1     8.99966   -9.37909   16.91951
       H     7.26864   -9.64756   15.05214
       O     6.95827   -9.94396   14.15893
      H1     6.01756   -9.93783   14.20187
       H     9.25175    2.04464   19.26391
       O     9.86844    1.37753   18.97706
      H1    10.59196    1.41679   19.60975
       H     8.19364    0.10316   18.56080
       O     7.46089   -0.55865   18.48757
      H1     7.07986   -0.44512   17.57639
       H     3.77192   -2.58901   18.16657
       O     4.63563   -2.44377   18.52950
      H1     4.58211   -1.74027   19.19312
       H     6.38400   -6.50417   14.49187
       O     7.27723   -6.29969   14.81900
      H1     7.78006   -6.76858   14.16937
       H    13.56095   -1.57009   19.48240
       O    13.41785   -0.98150   18.76322
      H1    12.84755   -1.39446   18.11195
       H    13.73022   -3.56466   14.08994
       O    13.98715   -3.46252   13.16904
      H1    14.87945   -3.10363   13.16175
       H     8.76093    1.25819   15.85483
       O     9.29487    0.61563   15.39291
      H1    10.12339    1.08131   15.13257
       H     7.42562   -6.45115   16.69897
       O     7.24363   -6.42925   17.64035
      H1     7.13306   -5.51706   17.91585
       H     9.02396   -3.03607   10.04608
       O     9.60608   -3.35623   10.73109
      H1     9.65460   -2.80925   11.57071
       H     1.76820   -3.34036   16.78817
       O     2.41766   -2.67569   17.00392
      H1     2.65208   -2.37786   16.07850
       H     2.40776   -8.16444   15.95457
       O     2.76629   -8.19986   16.82720
      H1     3.43003   -7.53008   16.93072
       H    10.95165   -2.21051   13.96211
       O    10.42854   -2.21572   13.14160
      H1     9.76211   -1.51480   13.24304

