153
frame 0 | Written by MDAnalysis XYZWriter (release 2.4.3)
       H    -2.99539    2.83032   -3.14153
       O    -3.86636    2.44209   -2.99600
      H1    -4.09026    2.78442   -2.14275
       H    -1.45578    5.58836    0.57442
       O    -1.69741    4.67847    0.34367
      H1    -1.17863    4.02215    0.83890
       H    -7.50455    2.84031   -4.52712
       O    -6.53916    3.05216   -4.34209
      H1    -6.48387    2.85807   -3.38309
       H    -9.76672   -1.89735    1.84934
       O    -8.83416   -2.07119    2.09226
      H1    -8.52570   -1.37350    2.68874
       H    -5.37488   -1.90796   -3.26397
       O    -4.87568   -2.57039   -3.75872
      H1    -3.90225   -2.35044   -3.73598
       H    -7.76078    3.34308    6.31266
       O    -7.21021    3.93314    5.73109
      H1    -7.72591    4.04247    4.90719
       H   -10.32636    6.71665    4.70982
       O    -9.47004    6.24998    4.72459
      H1    -9.26965    6.28185    5.68640
       H    -6.83195    5.65478    1.81681
       O    -6.92720    5.87543    0.86463
      H1    -7.57200    5.25436    0.49956
       H    -5.76393    4.88489   -3.27808
       O    -6.01730    5.37442   -2.46202
      H1    -5.47495    5.07695   -1.75168
       H    -9.26408   -5.07585    2.82187
       O    -9.20123   -4.41820    3.51217
      H1    -9.21400   -3.60282    2.97181
       H    -3.42132    7.34576    0.97628
       O    -3.75075    6.62443    1.51238
      H1    -3.15632    6.71180    2.26957
       H   -11.98975    0.47552    2.41673
       O   -11.44300    1.30165    2.43411
      H1   -10.85653    1.05868    1.69604
       H    -2.69057    1.27299    3.55943
       O    -2.63267    1.81733    2.78415
      H1    -3.50863    1.86052    2.34837
       H    -7.05117    8.96911    2.10127
       O    -6.34237    8.75522    1.39159
      H1    -6.50808    7.82854    1.18423
       H   -10.79483   -1.68987    4.56123
       O   -10.98267   -0.77672    4.65791
      H1   -10.36129   -0.35708    4.05315
       H    -8.46367   -5.27136   -0.43969
       O    -8.93026   -4.49050   -0.16542
      H1    -8.23732   -3.96279    0.29156
       H    -4.49954    2.56776    0.44531
       O    -4.80595    1.71720    0.84064
      H1    -4.78787    1.00033    0.27413
       H    -4.74347    0.83057    7.36142
       O    -4.84214    0.04947    6.84876
      H1    -5.67888    0.09430    6.34942
       H    -1.86297    0.48931   -1.57311
       O    -1.10469    1.07900   -1.45766
      H1    -0.39989    0.73955   -2.00611
       H    -7.50745    3.02067    1.97871
       O    -7.33945    2.15837    1.49321
      H1    -6.37956    2.22367    1.27987
       H    -8.55910    2.27637    8.52329
       O    -7.77595    2.17293    7.90631
      H1    -7.01230    2.48204    8.40543
       H   -12.98116    4.11427    1.04808
       O   -13.85388    3.75924    0.87304
      H1   -13.79399    2.81200    0.89522
       H   -10.51036    0.28944    6.04960
       O   -10.28708    0.82455    6.82779
      H1   -10.96030    1.48457    6.82058
       H    -8.15279    5.07104    7.13192
       O    -8.19505    6.03173    7.33355
      H1    -8.75900    6.08323    8.13670
       H    -4.19208   -0.70800   -0.71121
       O    -4.70348   -0.81519    0.17634
      H1    -5.60660   -1.10179   -0.05461
       H    -6.87583    1.18279   -2.38849
       O    -6.90628    1.97468   -1.87789
      H1    -6.81477    1.78425   -0.91447
       H   -10.27122    2.00856   -1.43669
       O   -10.81324    2.59111   -2.04004
      H1   -10.87694    2.17686   -2.93030
       H    -4.02899    5.36218    5.74273
       O    -3.83721    6.27892    6.08841
      H1    -3.39099    6.09247    6.93333
       H    -7.56023    0.18829    4.16154
       O    -7.77140    0.01691    3.25747
      H1    -7.38457    0.68498    2.69283
       H   -11.63082    4.97902    2.65424
       O   -11.46612    4.22371    2.06321
      H1   -11.78450    3.44049    2.56522
       H   -11.37642   -3.32459    1.37335
       O   -11.42517   -2.34920    1.33412
      H1   -12.17186   -2.14370    1.93484
       H    -2.69805    3.22587    7.29486
       O    -3.51133    2.68411    7.18687
      H1    -4.00624    2.95218    6.39988
       H    -6.29405   -0.11937   -3.80979
       O    -6.98980   -0.42220   -3.29303
      H1    -7.44057   -1.13031   -3.74070
       H    -8.02608   -1.79196   -0.93101
       O    -7.60250   -1.22755   -0.23980
      H1    -7.96614   -1.64847    0.58140
       H    -7.57024    9.01715    4.16294
       O    -8.36725    8.75506    3.62892
      H1    -8.53105    7.85717    4.04515
       H    -3.45174    0.13638    5.73753
       O    -2.68068    0.10194    5.13539
      H1    -1.99155    0.04565    5.81713
       H    -8.06625    4.45621   -2.43165
       O    -9.02457    4.74274   -2.56778
      H1    -9.53750    3.87104   -2.67666
       H   -13.17035    5.58690   -1.61970
       O   -12.36982    5.27136   -2.14338
      H1   -12.21807    4.38240   -1.75188
       H    -7.83002    0.86725    6.65078
       O    -7.55322    0.26888    5.95502
      H1    -8.01038   -0.57891    6.20307
       H    -9.02784    4.66238    3.50888
       O    -8.51821    3.94158    3.14617
      H1    -9.09896    3.15618    3.20331
       H   -12.26953    1.38427   -1.54223
       O   -13.03001    0.77752   -1.54481
      H1   -12.73102   -0.08650   -1.55200
       H    -0.69007    1.70566    0.27397
       O    -0.56027    2.09099    1.17132
      H1    -1.40265    2.01398    1.69032
       H    -4.89547    5.10610    0.36158
       O    -4.53478    4.38845   -0.18131
      H1    -3.56911    4.51380   -0.24659
       H   -10.42077   -1.97665   -2.11946
       O    -9.50629   -2.44720   -2.09928
      H1    -9.54384   -3.31834   -1.61777
       H    -4.99902    4.13744    4.37597
       O    -4.20766    3.68857    4.71827
      H1    -3.60617    3.75577    3.96870
       H    -3.50403   -0.83552    3.29416
       O    -3.38487   -1.36865    2.56434
      H1    -3.90376   -0.97639    1.87197
       H    -4.86749    6.06118    2.79382
       O    -5.59816    5.78410    3.43386
      H1    -5.73278    6.55631    3.98499
       H   -11.40292    6.38243   -1.22111
       O   -10.83134    7.08431   -0.83296
      H1   -10.00204    6.60182   -0.44055
       H    -2.88157   -0.50793   -2.84421
       O    -3.42799   -0.02948   -2.22094
      H1    -3.52816    0.89010   -2.64974
       H   -10.21669    4.51057    0.49630
       O    -9.41729    4.89970    0.00790
      H1    -9.48724    4.84382   -0.95439
       H    -9.13730    0.22332   -0.40536
       O    -9.44587    1.08136   -0.16138
      H1    -8.74089    1.35971    0.43950

