153
frame 1 | Written by MDAnalysis XYZWriter (release 2.4.3)
       H   -10.83691   10.47465    0.97094
       O   -11.33923   10.51172    1.79169
      H1   -12.15209   10.84554    1.43196
       H    -6.21608    6.24781   -5.27665
       O    -6.05543    5.30251   -5.40957
      H1    -6.45837    4.88785   -4.61639
       H   -12.97995    7.57498   -5.56297
       O   -12.21220    7.88324   -5.13989
      H1   -12.38740    8.02146   -4.20261
       H    -2.30851   13.00814    3.58600
       O    -2.51210   13.88851    3.22436
      H1    -3.38861   13.80912    2.81266
       H   -11.64795    9.32594   -2.57315
       O   -10.66886    9.30726   -2.62367
      H1   -10.36084    8.66637   -1.94520
       H   -13.76018    9.30493   -1.57160
       O   -13.48151    9.26201   -2.50099
      H1   -13.92244    9.97526   -3.01481
       H    -3.48143   10.05382    0.10994
       O    -3.39936    9.21067   -0.41433
      H1    -4.30258    8.93363   -0.69495
       H    -3.52436    9.18346   -4.79151
       O    -3.61733    9.86283   -4.15474
      H1    -4.31147    9.48753   -3.65981
       H    -7.29458   11.10823   -4.89474
       O    -7.91003   11.78480   -5.22313
      H1    -8.34329   11.54862   -6.09275
       H    -9.24756   11.22732   -0.46187
       O   -10.14499   11.27078   -0.77868
      H1   -10.18071   10.69588   -1.55892
       H    -5.79188    5.14144    2.00488
       O    -6.02125    5.08821    1.07729
      H1    -6.96041    4.95981    1.02948
       H    -4.58230    5.40169   -3.59822
       O    -4.92114    5.96023   -2.83914
      H1    -4.47993    5.52879   -2.10436
       H    -3.47299    7.65668    0.64857
       O    -3.79048    6.86288    1.12643
      H1    -3.14577    6.57853    1.77655
       H    -7.48548    7.89164    1.88595
       O    -7.03935    7.99067    1.06877
      H1    -6.66334    7.08906    0.80345
       H    -8.27716   13.50050    2.30875
       O    -7.42588   13.38732    1.88194
      H1    -7.69088   13.36852    1.00682
       H   -13.52522   12.17965    0.05161
       O   -13.64301   11.65494    0.84289
      H1   -13.90163   10.76961    0.56900
       H    -4.66379    8.76268    2.15264
       O    -4.15788    9.36508    2.74415
      H1    -4.54256   10.26081    2.77480
       H    -2.13116   10.30569   -1.64521
       O    -1.68540   10.58306   -2.42938
      H1    -2.33549   10.33362   -3.13066
       H    -5.20408    8.38791    5.60433
       O    -5.72028    8.59013    4.76318
      H1    -5.00655    8.78961    4.04166
       H    -8.41327   17.59489   -2.15759
       O    -7.87924   16.78955   -2.05454
      H1    -8.38544   16.07166   -2.41029
       H    -4.30348   11.66264   -4.74665
       O    -4.67847   12.52374   -4.90005
      H1    -5.30740   12.36874   -5.66879
       H   -10.42174   12.98815   -0.95854
       O   -10.45765   13.94870   -1.07494
      H1   -10.02568   14.12312   -1.93689
       H   -13.51711    8.39128    0.44945
       O   -14.15436    9.06004    0.12357
      H1   -15.03193    8.67915    0.07721
       H   -12.41462    8.11897    2.24903
       O   -12.51262    7.43341    1.61684
      H1   -11.70745    7.45460    0.99540
       H    -7.31877   14.43599   -5.60032
       O    -7.54781   15.25591   -6.05213
      H1    -6.81756   15.85658   -5.85533
       H    -5.89991   14.69233    2.22940
       O    -4.98899   14.99931    1.97847
      H1    -5.10098   15.94089    1.69763
       H    -5.25982   12.51946    3.54296
       O    -5.32677   11.78064    2.90261
      H1    -6.10974   12.05677    2.43437
       H    -6.62129   10.75126   -1.24571
       O    -7.32928   10.61244   -0.57622
      H1    -7.10754    9.88599   -0.02897
       H   -10.12309   13.92641    3.44190
       O    -9.36277   14.57800    3.40209
      H1    -9.62979   15.05520    2.59621
       H    -1.06148    8.29057    3.88603
       O    -1.36807    8.67972    3.07328
      H1    -2.31237    8.65939    3.12957
       H   -11.29569   11.98223    3.24168
       O   -11.29449   12.51813    4.04397
      H1   -10.78697   11.96553    4.71302
       H    -4.32029   12.57798    0.84212
       O    -3.69506   12.12241    0.23732
      H1    -2.86639   12.62524    0.33577
       H    -7.33248    8.21852    4.23621
       O    -8.17754    8.24974    3.77175
      H1    -8.72635    7.49510    4.09099
       H    -5.27293   12.20162   -3.11114
       O    -5.67550   11.88919   -2.30712
      H1    -4.91609   11.86383   -1.70805
       H    -7.49704    5.83460   -2.13985
       O    -8.42623    5.69219   -2.25322
      H1    -8.41175    4.90364   -2.84341
       H   -12.21612   13.89430   -1.06848
       O   -13.13433   13.59558   -1.15669
      H1   -13.56446   14.40357   -0.84815
       H   -12.83821    9.71658    4.53945
       O   -12.59497    9.17452    3.76379
      H1   -12.14662    9.77824    3.14520
       H    -4.79579    4.69210   -0.02225
       O    -4.06603    4.34179   -0.57286
      H1    -3.24339    4.62924   -0.09724
       H    -3.49383   13.60812   -5.26689
       O    -2.79352   14.33679   -5.36792
      H1    -2.21011   14.34946   -4.57990
       H    -6.34638    8.90906   -2.83684
       O    -5.59504    8.72248   -2.25921
      H1    -5.40712    7.80659   -2.52755
       H    -7.29630   10.35714    5.10535
       O    -7.31210   10.66610    6.02250
      H1    -8.26661   10.63041    6.14865
       H   -11.45697   11.08406   -5.37526
       O   -12.30553   10.63180   -5.45889
      H1   -12.25833    9.68415   -5.19656
       H    -4.50435    6.32887    2.94927
       O    -5.29176    6.15220    3.53160
      H1    -5.36096    6.92454    4.14568
       H   -10.49545    6.60499   -0.60639
       O   -10.37258    7.58342   -0.45963
      H1    -9.68986    7.52950    0.25394
       H    -8.66090    6.78155   -3.48795
       O    -8.72988    7.37980   -4.27535
      H1    -9.06285    8.24601   -3.97121
       H     0.42705    8.35102   -1.96306
       O    -0.54114    8.14586   -1.93883
      H1    -1.01713    9.00659   -2.07655
       H    -7.34800    7.75945   -5.18124
       O    -6.45807    8.14138   -5.11104
      H1    -6.23069    8.43356   -6.02609
       H    -9.90955   14.79545   -3.79249
       O    -9.02117   14.70340   -3.36548
      H1    -8.69444   13.83444   -3.65086
       H   -10.01020   15.40100    0.24857
       O    -9.92562   15.95055    1.00703
      H1    -9.18349   16.51206    0.78085
       H    -9.51247    4.99537    1.07644
       O    -8.72368    5.32784    0.63140
      H1    -8.92309    5.39773   -0.28483
       H    -5.50548   13.29008    5.80215
       O    -4.97835   12.51813    5.54297
      H1    -5.50793   11.79296    5.82140

