153
frame 8 | Written by MDAnalysis XYZWriter (release 2.4.3)
       H     8.78491   -1.24301   -0.50552
       O     8.57102   -2.14801   -0.81427
      H1     9.07394   -2.72467   -0.22965
       H    18.74565    3.86299   -6.92465
       O    19.26563    3.98613   -6.11605
      H1    20.09015    3.56842   -6.46372
       H    12.43083   -2.47656   -0.44819
       O    12.98970   -2.09589   -1.13101
      H1    13.48990   -2.84403   -1.55686
       H    14.26925    4.15987    1.94365
       O    14.67415    4.87747    1.39982
      H1    15.28673    4.38038    0.89215
       H    18.36248   -5.68976   -4.20216
       O    19.19939   -6.13787   -3.94498
      H1    19.40343   -6.02561   -3.03862
       H    14.14777   -4.79506   -3.20172
       O    14.27704   -4.31282   -2.35194
      H1    14.02013   -4.93320   -1.63667
       H    13.39463   -1.71181   -8.65858
       O    12.65273   -1.42364   -8.05116
      H1    12.25385   -0.74634   -8.62896
       H    13.50944    0.92446   -6.40974
       O    14.01374    0.77756   -7.14823
      H1    13.48619    0.20078   -7.67950
       H    14.85508    3.20669   -5.80794
       O    14.57766    3.07623   -4.82930
      H1    13.89615    3.72601   -4.60170
       H    16.96702    6.62066   -5.72716
       O    16.74959    6.33915   -4.80995
      H1    16.94871    5.38530   -4.78409
       H     9.16399    1.36834   -6.73086
       O     8.77349    0.74878   -7.37245
      H1     8.13891    1.21620   -7.93832
       H    17.18870    2.74613    1.27500
       O    16.97993    3.27000    0.48158
      H1    17.77563    3.20262   -0.08091
       H    15.28012   -1.23982   -3.78883
       O    15.85865   -0.92646   -3.07475
      H1    15.28063   -0.28272   -2.54761
       H    12.91008   -6.22981    0.57828
       O    13.26713   -5.39936    0.30262
      H1    14.17877   -5.39178    0.68681
       H    19.03603   -1.84332   -8.39217
       O    19.89563   -1.60137   -8.84457
      H1    20.05709   -2.24450   -9.57844
       H    14.57747    0.49475   -0.58531
       O    14.42690    0.78891   -1.48553
      H1    14.56487    1.73821   -1.60966
       H    11.84317   -2.86303    1.75736
       O    11.19090   -2.73252    1.00664
      H1    10.71818   -3.59408    1.08337
       H    14.61522   -8.03643   -1.88917
       O    15.32536   -7.61380   -2.39501
      H1    16.09570   -7.49065   -1.87069
       H    14.54905   -2.79656  -10.65033
       O    14.46150   -3.17368   -9.72252
      H1    14.01574   -4.01712   -9.83236
       H    17.63196   -2.90513    0.07556
       O    16.71572   -3.11084    0.05772
      H1    16.46662   -3.18196   -0.89214
       H    10.62767    1.77362   -1.61076
       O     9.87996    2.34742   -1.28989
      H1     9.00118    1.99535   -1.50828
       H     7.04932   -2.57092   -5.55293
       O     7.84823   -3.12188   -5.38396
      H1     8.35225   -2.66059   -4.61421
       H    12.80686    0.66884   -1.75005
       O    11.88616    0.53406   -2.05390
      H1    11.87502   -0.43759   -2.02325
       H    16.87609   -4.60336   -3.64524
       O    16.74311   -5.00318   -4.49786
      H1    15.87454   -5.38288   -4.58532
       H    17.64569   -2.91717  -11.64564
       O    17.75096   -3.70613  -11.10389
      H1    17.41358   -3.40907  -10.23646
       H    14.74450   -6.98234   -5.86478
       O    15.47657   -7.27404   -6.41563
      H1    15.75266   -6.44365   -6.84096
       H    15.42787    3.07324   -0.70927
       O    14.93065    3.36824   -1.48286
      H1    15.57250    3.47260   -2.22174
       H    17.25907   -2.72735   -8.01259
       O    16.91793   -2.45798   -8.90050
      H1    16.05630   -2.84328   -8.84936
       H    13.08299    1.97662   -4.64945
       O    12.43545    1.32361   -4.85001
      H1    12.13540    0.91657   -4.02196
       H    18.27279   -2.94323   -2.52657
       O    17.37467   -3.29154   -2.62195
      H1    16.86003   -2.47451   -2.62710
       H    11.76884    4.85613   -3.36457
       O    12.39124    4.69960   -4.11807
      H1    13.13162    5.32808   -3.92045
       H    16.71214    3.39340   -4.49095
       O    17.34654    3.89721   -3.97610
      H1    18.16261    3.71943   -4.46294
       H    13.03842   -6.28303   -8.72366
       O    13.40575   -5.46338   -8.51747
      H1    12.67724   -4.95178   -8.02863
       H    16.55129   -6.30397    0.86667
       O    15.99780   -5.57865    1.16906
      H1    16.27066   -4.79317    0.68373
       H    11.16250   -2.33972   -4.14978
       O    11.95878   -2.81497   -3.76083
      H1    11.78493   -3.25944   -2.96072
       H    15.34197   -1.32346    0.95761
       O    15.04898   -0.40752    1.26069
      H1    14.47533   -0.58003    2.06238
       H    11.36720   -4.32188   -6.70031
       O    11.35796   -3.94554   -7.61117
      H1    11.83284   -3.08844   -7.55836
       H    11.07434    2.32599   -5.62572
       O    10.13486    2.69222   -5.75889
      H1    10.36485    3.63375   -5.98581
       H    17.56397    0.36677   -5.61361
       O    17.68435    0.43361   -4.69758
      H1    16.85137    0.06870   -4.27046
       H    14.38988   -6.74821   -3.84487
       O    14.20874   -6.03076   -4.44743
      H1    13.27588   -6.03283   -4.68872
       H    13.67716   -2.27226   -4.73074
       O    14.56960   -2.51975   -5.12443
      H1    14.58421   -3.48399   -5.19753
       H    15.00991    3.02798   -8.11707
       O    15.95087    2.81367   -7.92295
      H1    16.11788    1.86980   -8.09972
       H    16.72637   -0.63368   -7.79751
       O    16.64537    0.08071   -7.21734
      H1    15.74184   -0.03851   -6.98119
       H    18.11468   -6.99810   -1.19139
       O    17.29176   -7.08204   -0.61690
      H1    17.35890   -7.95405   -0.14867
       H    12.14315    0.46453  -10.41183
       O    11.99803    0.80267   -9.52709
      H1    11.04957    0.94512   -9.56324
       H     9.33569   -0.95925   -3.68808
       O     9.29887   -1.91113   -3.58332
      H1     9.14671   -2.15262   -2.63423
       H    10.91450   -4.43700   -4.59396
       O    11.14861   -5.14996   -5.28320
      H1    10.46912   -5.81228   -5.25770
       H    16.68062   -2.33073   -6.01484
       O    17.42728   -2.80772   -6.40061
      H1    17.50106   -3.62817   -5.90850
       H    16.74424   -5.93391   -8.81589
       O    16.30093   -5.33245   -8.17795
      H1    15.36094   -5.39547   -8.23373
       H    13.50611    4.39592   -1.10317
       O    12.86229    5.00054   -0.81946
      H1    13.16884    5.39073    0.02375
       H     9.98294    0.73542   -0.04739
       O     9.49722    0.15728    0.54145
      H1    10.19407   -0.20941    1.09808

