153
frame 10 | Written by MDAnalysis XYZWriter (release 2.4.3)
       H     0.43037   14.03032   -1.49812
       O    -0.38191   13.66587   -1.89812
      H1    -0.96378   14.44577   -1.97443
       H     2.73493    9.43099   -3.01649
       O     2.50953    9.56159   -3.97438
      H1     3.12410    8.91968   -4.46111
       H     3.32927   14.80008   -5.25236
       O     4.14767   15.20777   -4.92386
      H1     4.60290   15.56618   -5.69265
       H    -0.50639    8.77492   -6.07831
       O    -0.47536    8.38656   -6.95041
      H1    -0.97989    9.05278   -7.45643
       H     0.69174    4.86436   -8.03803
       O     1.49812    4.92167   -8.54885
      H1     1.29458    4.76503   -9.45799
       H    -2.87833    7.75547   -1.92341
       O    -3.78491    7.71658   -2.20726
      H1    -3.79738    6.90902   -2.73782
       H    -4.20736    7.98839   -5.28870
       O    -4.43050    8.89179   -4.93703
      H1    -5.33143    9.07161   -5.15790
       H    -3.97239    9.80965   -3.29971
       O    -3.82515   10.65939   -2.85332
      H1    -4.03057   10.44835   -1.90143
       H     4.24792    6.97905   -4.37678
       O     4.02036    7.63171   -5.02358
      H1     3.96292    7.20415   -5.89089
       H    -2.02216   15.41419   -3.55814
       O    -1.90492   15.91988   -2.76351
      H1    -1.39122   16.70707   -2.98319
       H    -5.18622    6.20399   -4.37604
       O    -5.22564    5.49317   -3.71035
      H1    -5.83615    5.81137   -2.99177
       H     5.85266   11.65772   -1.07984
       O     5.41284   10.81930   -1.38626
      H1     6.13221   10.18882   -1.50610
       H     0.14642    5.94872    1.18972
       O     1.10926    5.97385    1.34522
      H1     1.35680    6.90481    1.33262
       H    -2.05535    6.45382    1.05088
       O    -1.41931    6.00751    0.50452
      H1    -1.50696    5.10316    0.89946
       H     5.64539    5.92033   -2.24146
       O     4.80403    5.72374   -2.70815
      H1     4.21663    5.68207   -1.97032
       H     0.67448   14.35217   -6.05636
       O     0.24822   14.84033   -6.77066
      H1     0.40414   14.40015   -7.58017
       H    -5.45378   10.95905   -8.56917
       O    -4.99548   11.48670   -7.88033
      H1    -4.82081   12.32331   -8.26430
       H     1.41919    6.60991   -8.64668
       O     1.70258    7.55042   -8.78509
      H1     1.23612    8.12017   -8.14523
       H     1.60915    4.52781   -1.81543
       O     1.32722    3.60190   -2.01246
      H1     1.38053    3.59597   -3.00884
       H     1.93501   10.66887   -5.32471
       O     1.82915   11.18530   -6.13468
      H1     0.88739   11.34370   -5.96315
       H    -0.47441   11.89916   -2.54726
       O    -0.89849   11.24498   -3.17274
      H1    -1.85250   11.20007   -2.88913
       H     3.61374    8.71195   -0.64652
       O     2.80966    8.75920   -1.20705
      H1     2.45340    7.85240   -1.23185
       H    -4.77333    8.90330    0.15856
       O    -5.43939    8.23234    0.28618
      H1    -5.41241    7.64311   -0.47232
       H    -4.50945   12.25158   -2.86363
       O    -4.75119   13.12341   -3.14985
      H1    -5.45265   13.09271   -3.74540
       H     0.45113   12.80759    0.93776
       O     0.96775   12.06513    0.55762
      H1     1.48644   12.48852   -0.15575
       H     5.00679   11.04529   -2.94728
       O     4.92121   10.90053   -3.87355
      H1     4.07783   10.43447   -4.06582
       H    -1.61611   11.06218   -6.35377
       O    -1.17649   11.89905   -6.25923
      H1    -1.42560   12.33112   -7.11610
       H    -4.61531    5.87523   -6.36535
       O    -3.96997    6.48531   -5.95922
      H1    -3.49525    5.94156   -5.33377
       H    -4.43119   11.68795    0.14154
       O    -4.16782   10.75811   -0.02335
      H1    -3.24112   10.79247    0.11356
       H    -1.44879    7.35531  -10.63909
       O    -0.88790    7.99297  -10.20999
      H1    -0.30634    7.50699   -9.56592
       H    -1.36123    8.15061    2.76939
       O    -2.11894    8.28185    2.14722
      H1    -2.81469    8.72380    2.63263
       H    -3.44028   10.43349   -7.78818
       O    -2.69071    9.74330   -7.64853
      H1    -3.03131    9.07604   -7.09018
       H    -1.83943    4.86242   -1.16639
       O    -1.62927    4.10487   -1.76962
      H1    -0.65041    4.19247   -2.00431
       H    -1.20316    9.70744    0.86473
       O    -1.34666   10.42001    0.25181
      H1    -0.47872   10.74406    0.04219
       H     1.38139    6.89763   -2.46744
       O     1.25956    6.31535   -1.67990
      H1     0.50829    6.70733   -1.26398
       H    -1.16876    8.87200   -1.18008
       O    -0.98010    8.13239   -1.82225
      H1    -0.67491    8.57965   -2.64639
       H     2.19101   11.22931    2.83653
       O     2.94398   11.53676    2.32344
      H1     2.61057   11.72251    1.41656
       H     0.65055   13.23402   -9.73701
       O     1.30117   13.56556   -9.08890
      H1     1.98156   13.87339   -9.76508
       H    -5.26398   13.39708   -1.23943
       O    -5.42565   13.23072   -0.27434
      H1    -5.05005   13.95143    0.17371
       H    -3.67129    7.61106  -10.21531
       O    -4.06043    7.80985   -9.38844
      H1    -3.29399    8.27531   -8.90680
       H     1.30946   13.63248   -3.85563
       O     1.71812   13.65079   -4.71126
      H1     2.32950   12.89204   -4.70775
       H    -2.52908   14.70822   -5.73267
       O    -2.33580   15.36105   -6.44910
      H1    -1.42241   15.13805   -6.65786
       H     3.68790   11.77354   -1.07615
       O     2.92197   12.33254   -1.14026
      H1     3.27659   13.21681   -1.31317
       H    -3.34722   13.59134   -3.80794
       O    -2.50140   13.76090   -4.28356
      H1    -1.96118   12.94127   -4.28482
       H    -1.14685    6.00888   -6.65457
       O    -0.96590    5.19002   -7.13591
      H1    -1.74110    5.16825   -7.70038
       H    -7.53903   11.05275   -2.00696
       O    -7.40704   10.41423   -2.76091
      H1    -6.47601   10.28014   -2.77722
       H     2.10901   10.81568   -7.94219
       O     2.27493   10.82703   -8.88923
      H1     2.07634   11.73878   -9.06177
       H    -1.87056   12.86017   -9.68084
       O    -2.01908   13.20758   -8.75782
      H1    -2.52580   14.03269   -8.90779
       H     4.08284    6.05304   -8.31663
       O     4.03987    6.79633   -7.75102
      H1     3.26068    7.28335   -8.07390
       H    -1.96332    4.96072   -3.40147
       O    -2.18609    5.47733   -4.20368
      H1    -1.65024    6.24740   -4.13264
       H     0.88451    9.20807   -4.10148
       O    -0.03675    8.93546   -4.20595
      H1    -0.44718    9.75153   -4.03293

