153
frame 10 | Written by MDAnalysis XYZWriter (release 2.4.3)
       H    -7.35385    9.65806  -18.52388
       O    -8.25977    9.99801  -18.56855
      H1    -7.96884   10.88523  -18.62784
       H    -6.07181    6.23215  -18.12887
       O    -5.99054    6.41014  -17.17470
      H1    -5.19794    6.02094  -16.86722
       H    -8.91281    7.90898  -16.04982
       O    -8.36617    8.69414  -15.82953
      H1    -8.31323    9.22395  -16.65602
       H     0.62420   12.25643  -11.73535
       O    -0.34659   12.26578  -11.50938
      H1    -0.66258   11.37882  -11.40361
       H     2.42797   13.85564  -12.09963
       O     2.40153   12.91660  -12.28477
      H1     2.19421   12.74307  -13.23292
       H     0.12982    6.47610  -14.05118
       O    -0.39723    6.48226  -13.23587
      H1     0.17322    6.05149  -12.58157
       H    -1.96770    6.61938  -12.74965
       O    -2.75440    6.69417  -12.18771
      H1    -3.49506    6.47405  -12.76420
       H    -5.98146   13.47575  -16.19638
       O    -6.34806   12.64647  -16.50855
      H1    -6.04488   11.89072  -15.98149
       H    -5.87971    8.15534  -17.62953
       O    -5.81583    8.85605  -18.32536
      H1    -4.93616    9.29516  -18.20437
       H    -2.52052   12.94586  -13.52507
       O    -1.67731   13.47626  -13.45873
      H1    -1.06888   13.03451  -12.79690
       H    -5.85146    6.82226  -13.46336
       O    -5.47954    5.92786  -13.36881
      H1    -5.12468    5.77010  -14.27842
       H    -1.54444    7.50777  -16.11266
       O    -2.49320    7.66531  -15.74848
      H1    -3.06634    7.30635  -16.48059
       H     1.26892    8.43369  -11.20511
       O     1.29132    8.60360  -12.19138
      H1     0.46999    8.19199  -12.49543
       H     0.97953    2.85897  -14.28004
       O     0.39854    3.52299  -13.96135
      H1    -0.31631    2.97726  -13.56679
       H    -1.22799   10.18838  -15.27999
       O    -0.36484   10.55214  -15.66257
      H1    -0.51388   10.82803  -16.57049
       H    -0.37068    5.23182  -17.85770
       O    -0.16220    5.33370  -18.78082
      H1     0.30898    6.15140  -18.78693
       H     2.46153    8.78549  -18.64715
       O     2.44641    8.29674  -19.44094
      H1     2.72150    8.92053  -20.14604
       H    -2.15634    0.97481  -18.87248
       O    -2.36214    0.04480  -18.96838
      H1    -2.56902   -0.19955  -19.88227
       H     3.60786    7.01435  -11.25961
       O     3.79301    6.47366  -12.05692
      H1     2.99375    6.38410  -12.56414
       H    -4.42801   11.26987  -13.87435
       O    -4.16217   12.14894  -13.54004
      H1    -4.99838   12.65512  -13.56809
       H     0.56578    8.64269  -19.41119
       O    -0.32445    9.03615  -19.51845
      H1    -0.89122    8.50092  -18.93393
       H     4.33022    4.98007  -13.84478
       O     4.92624    4.43175  -14.31678
      H1     5.77375    4.75995  -14.10326
       H    -2.14030    9.75800  -10.64942
       O    -2.28589   10.48151  -11.22787
      H1    -2.82133   11.17029  -10.69650
       H     2.64724    5.69108  -15.37225
       O     1.94939    5.68565  -14.70308
      H1     1.37445    4.84145  -14.82923
       H    -0.05357   12.78166  -19.34182
       O    -0.10050   13.59382  -18.72460
      H1    -0.84829   13.45234  -18.07687
       H     1.69837    4.48294  -11.16906
       O     0.87917    4.99246  -11.19272
      H1     0.43531    4.52000  -11.92768
       H     0.44108    8.91362  -16.25919
       O     0.64968    7.96250  -16.31745
      H1     1.23724    7.91372  -15.54370
       H     3.10262    9.71719  -16.38047
       O     3.31843   10.01125  -17.25588
      H1     4.22011    9.74166  -17.57292
       H    -1.44879    7.35531  -10.63909
       O    -0.88790    7.99297  -10.20999
      H1    -0.30634    7.50699   -9.56592
       H    -2.94341    4.84531   -9.76100
       O    -3.27833    4.83297   -8.86948
      H1    -3.79848    5.57601   -8.72971
       H    -4.26076    3.92449  -18.58228
       O    -3.88518    3.08035  -18.15522
      H1    -4.49468    2.34876  -18.44155
       H    -1.74555    1.56011  -12.66714
       O    -1.18246    1.38113  -13.41743
      H1    -0.55322    0.66817  -13.04333
       H    -1.21155    3.78158  -16.88263
       O    -1.16446    4.49623  -16.22404
      H1    -0.60718    4.17633  -15.48151
       H    -3.00455    5.24161  -15.69047
       O    -3.97183    5.06974  -15.71234
      H1    -4.21280    4.15911  -16.05459
       H    -1.55893   13.42328  -15.64620
       O    -2.04008   13.68077  -16.46301
      H1    -2.88857   13.86573  -16.13107
       H    -7.25549    5.47157  -16.45586
       O    -7.73799    4.76163  -15.89912
      H1    -7.92851    4.08066  -16.51288
       H     0.18912    0.25779  -16.08134
       O    -0.74873    0.22138  -15.86190
      H1    -0.75865    0.74386  -15.07748
       H    -6.92603    9.22606  -13.19415
       O    -6.44530    8.71988  -13.80734
      H1    -7.17741    8.54570  -14.43259
       H    -1.15437    1.55110  -17.36221
       O    -1.14057    2.39337  -17.85982
      H1    -2.01874    2.81231  -17.88503
       H    -3.67129    7.61106  -10.21531
       O    -4.06043    7.80985   -9.38844
      H1    -3.29399    8.27531   -8.90680
       H     2.65214    4.51089  -18.67312
       O     2.41893    3.72608  -18.11527
      H1     1.66830    3.32703  -18.49929
       H    -3.37677    6.98139  -19.26882
       O    -2.47876    7.06380  -18.92638
      H1    -1.87428    6.32255  -19.19772
       H     1.19790   12.63967  -15.78746
       O     1.04850   12.81231  -14.80260
      H1     0.46509   12.04175  -14.63819
       H    -3.86421    9.93572  -15.09616
       O    -4.72745   10.22434  -15.46169
      H1    -5.31589    9.77904  -14.88844
       H     3.03248    1.99669  -15.28041
       O     2.31410    2.02599  -15.94264
      H1     2.50842    2.70130  -16.59247
       H    -2.28640    8.80632  -14.18881
       O    -2.41186    9.78055  -14.02219
      H1    -2.51307    9.92774  -13.07847
       H     1.35864   13.25419  -18.00569
       O     1.91724   12.78514  -17.37772
      H1     2.41373   12.11853  -17.82757
       H     3.22512    9.89579  -14.26445
       O     2.73183    9.08577  -14.46389
      H1     2.32090    8.80052  -13.65201
       H    -7.40727    2.94945  -14.04875
       O    -6.74311    3.21342  -13.36740
      H1    -6.53155    4.18660  -13.50809
       H     3.83792    6.79622  -17.30400
       O     4.00938    6.74487  -16.36653
      H1     4.24594    7.62222  -16.10672
       H    -3.48991   11.11357  -18.62409
       O    -3.64790   10.48204  -17.93413
      H1    -3.97280   10.88209  -17.14155

