153
frame 4 | Written by MDAnalysis XYZWriter (release 2.4.3)
       H    -1.94081  -16.83517  -10.38801
       O    -2.83673  -16.45691  -10.26294
      H1    -2.73999  -15.51911  -10.13839
       H    -5.34334   -8.00318   -2.60298
       O    -4.73419   -8.21030   -1.87047
      H1    -4.57991   -7.39370   -1.36128
       H   -10.65615  -16.51821   -3.79895
       O    -9.89102  -16.02266   -4.12713
      H1    -9.17174  -16.61562   -4.30465
       H     1.74126  -12.07222   -6.45469
       O     1.53465  -12.63452   -7.19445
      H1     0.73929  -13.02863   -6.85917
       H    -0.58983   -8.09120   -2.59520
       O     0.04385   -8.63507   -3.01096
      H1    -0.34639   -8.98438   -3.81800
       H    -0.69787  -18.85918   -6.26356
       O     0.10932  -19.21164   -6.65201
      H1    -0.02618  -19.75330   -7.44996
       H     3.08541  -10.69931   -4.37488
       O     2.17118  -10.36514   -4.54796
      H1     1.58286  -10.72467   -3.86791
       H    -3.27254  -17.86337   -4.54100
       O    -2.34343  -17.89663   -4.78143
      H1    -2.07932  -17.09526   -5.27595
       H   -10.43863  -13.48282   -6.42361
       O   -10.48588  -12.51595   -6.31236
      H1    -9.76793  -12.29469   -5.70120
       H    -5.67682  -19.25946   -2.72156
       O    -6.05342  -19.09105   -1.86928
      H1    -6.62609  -18.32124   -1.87660
       H    -0.99041  -14.30648   -5.81079
       O    -0.57756  -13.37825   -5.65175
      H1    -1.27066  -12.84115   -6.10969
       H    -8.16017  -17.94315   -5.44357
       O    -7.69953  -17.15695   -5.24249
      H1    -7.39967  -16.88470   -6.08738
       H     0.14437  -12.79790   -4.05405
       O     0.64522  -12.33756   -3.38513
      H1     0.52773  -12.80319   -2.51097
       H    -5.56552  -15.63641   -7.21786
       O    -6.35878  -16.18285   -7.51312
      H1    -6.50053  -15.69116   -8.32947
       H    -3.68868  -11.62058   -3.38558
       O    -3.75859  -12.10226   -4.20246
      H1    -4.51780  -11.67499   -4.61793
       H    -7.21208  -16.73741    2.53432
       O    -6.52738  -16.17662    2.13164
      H1    -7.05377  -15.67600    1.53306
       H    -4.93466  -11.61969    1.11264
       O    -4.45876  -11.79273    1.96698
      H1    -4.91889  -12.48907    2.44602
       H    -9.78604  -14.46558   -2.83015
       O    -9.57403  -13.59268   -2.52232
      H1   -10.44368  -13.18994   -2.20319
       H    -3.90484  -13.87219   -6.73838
       O    -4.08778  -14.81214   -6.55634
      H1    -4.30326  -14.85949   -5.61636
       H    -5.52752  -14.93552   -0.88167
       O    -4.92505  -14.23177   -1.12060
      H1    -4.04932  -14.56468   -0.86709
       H    -4.32118  -14.23322  -10.05342
       O    -3.46285  -13.81666   -9.78445
      H1    -3.69068  -13.18608   -9.04120
       H    -6.04936  -17.32966   -4.68139
       O    -5.16249  -17.42778   -4.31573
      H1    -4.95050  -16.56692   -3.94237
       H    -7.08501   -6.27941   -4.20537
       O    -6.32809   -6.85595   -4.34962
      H1    -6.74336   -7.72501   -4.63310
       H    -8.02359   -8.53581   -1.69829
       O    -7.52194   -8.66169   -0.85953
      H1    -6.56691   -8.67041   -1.09937
       H    -7.83057   -9.85865   -5.68814
       O    -7.21359   -9.70426   -4.95762
      H1    -7.44833  -10.32689   -4.22016
       H    -4.99865  -19.17221   -0.31329
       O    -4.21619  -19.50995    0.21909
      H1    -4.29071  -18.91302    0.99561
       H    -1.46306  -15.13132   -1.20963
       O    -2.35483  -15.52859   -1.13822
      H1    -2.28674  -16.44412   -1.43832
       H    -2.59756  -15.51645   -6.61174
       O    -1.67521  -15.82373   -6.33486
      H1    -1.11286  -15.84444   -7.14019
       H    -2.75983  -11.54755   -7.56062
       O    -3.44986  -12.29352   -7.63803
      H1    -4.27023  -11.89998   -7.29929
       H    -0.59902  -11.16438   -8.08443
       O    -1.30875  -10.53926   -7.73034
      H1    -1.08652  -10.17049   -6.92055
       H    -1.67682  -15.81566    0.87838
       O    -1.57605  -16.06514    1.79474
      H1    -1.52012  -15.25232    2.34322
       H    -4.26842  -13.73730   -3.94224
       O    -4.57440  -14.62180   -3.73012
      H1    -4.86742  -14.51912   -2.81057
       H    -8.03184  -12.31263   -2.87391
       O    -7.29850  -11.64798   -2.94113
      H1    -6.89786  -11.79535   -2.06349
       H    -4.81875  -11.34436   -1.14507
       O    -5.64239  -11.69891   -0.68776
      H1    -5.39132  -12.62870   -0.58372
       H    -0.58672  -13.13446   -0.70565
       O    -0.06484  -13.82447   -1.06617
      H1     0.73997  -14.09466   -0.48879
       H    -8.20756  -15.05327   -0.59440
       O    -7.79020  -14.78525    0.22605
      H1    -8.03196  -13.84275    0.34090
       H    -1.56917  -18.19964   -3.02314
       O    -1.02034  -18.23488   -2.22601
      H1    -1.20089  -19.07804   -1.77702
       H     2.47710  -15.27882   -2.97861
       O     2.34258  -14.65954   -3.71908
      H1     1.65688  -14.11531   -3.46091
       H    -3.64767   -7.51337   -3.29281
       O    -3.04535   -7.39649   -4.04425
      H1    -3.58724   -6.89534   -4.71948
       H    -6.88346  -14.00598  -10.64345
       O    -6.98354  -14.30820   -9.73970
      H1    -7.90289  -14.60278   -9.71252
       H    -7.90633  -11.37571   -0.22639
       O    -8.20347  -12.05503    0.38237
      H1    -9.14842  -12.07226    0.07286
       H     0.35240  -11.39930    2.24054
       O     0.18004  -12.10503    1.53540
      H1    -0.52948  -11.64810    1.06993
       H   -11.68260  -15.24337   -6.57274
       O   -10.72651  -15.28931   -6.63967
      H1   -10.44451  -15.61141   -5.78160
       H     1.23572  -15.86894   -7.33516
       O     0.55013  -15.61475   -7.99731
      H1     0.40513  -16.48571   -8.46487
       H    -8.46802  -17.46790   -1.96399
       O    -7.64993  -16.94804   -2.13566
      H1    -7.75608  -16.37498   -2.93773
       H    -6.07748  -10.48042   -6.28702
       O    -5.78925  -11.20192   -6.84801
      H1    -6.39619  -11.28469   -7.62659
       H    -4.23705  -17.50038   -9.40017
       O    -4.77635  -18.22291   -8.95407
      H1    -5.41611  -17.78658   -8.41114
       H    -7.61096  -11.94455   -9.15308
       O    -6.99472  -11.19378   -9.30108
      H1    -7.42630  -10.50225   -8.80722
       H    -2.11731  -10.03246   -4.42593
       O    -1.69344   -9.55303   -5.15737
      H1    -2.20328   -8.74155   -4.94172
       H    -3.88903   -9.71926   -1.98280
       O    -3.48394  -10.63349   -2.04353
      H1    -2.64790  -10.65267   -1.58992
       H    -1.84396  -10.57438    0.05342
       O    -1.37649  -11.32028   -0.45944
      H1    -0.63865  -10.86273   -0.82756

