153
frame 4 | Written by MDAnalysis XYZWriter (release 2.4.3)
       H    16.03257   12.96770    3.66719
       O    15.93162   12.86142    2.70382
      H1    16.80013   12.90675    2.33433
       H     8.62889   16.46635    2.97651
       O     7.88563   16.65669    3.52017
      H1     7.21044   16.00208    3.54804
       H    19.39237   12.37296    2.04445
       O    18.65246   12.78988    2.38967
      H1    18.36036   12.36348    3.19729
       H     7.62356   12.54149   -2.20755
       O     6.71478   12.23262   -2.22768
      H1     6.81028   11.42663   -2.73000
       H    14.62811   15.85669    2.70322
       O    14.71654   15.27657    1.93356
      H1    15.36741   14.55631    2.12803
       H    14.17513   11.72641   -4.21440
       O    14.53905   12.31736   -3.57067
      H1    13.94834   13.07916   -3.50578
       H    12.70738    8.63135    2.68707
       O    12.80965    7.70330    2.57201
      H1    13.30764    7.61072    1.76640
       H    18.53724   15.09390    2.73382
       O    18.78437   15.63155    1.93904
      H1    18.07324   16.21642    1.72818
       H     7.49327   10.31920    3.42533
       O     8.23870   10.62550    2.83969
      H1     7.91250   11.27871    2.25016
       H    10.51193   18.91683    0.67663
       O    11.38317   19.05430    1.19046
      H1    11.26989   19.57474    1.99301
       H    16.37122   10.45767   -3.19374
       O    17.13833   10.14739   -2.66128
      H1    16.66035    9.90430   -1.88640
       H    14.49758   10.82328   -0.15379
       O    15.25150   11.19335    0.28678
      H1    14.85516   11.50841    1.07816
       H    12.01610    6.45221   -1.72222
       O    12.07271    6.68032   -0.77340
      H1    11.28863    7.01899   -0.34342
       H     9.22551    8.19181    4.82046
       O     8.95668    7.24854    4.68145
      H1     9.31083    7.00162    3.86715
       H    12.66197   17.76215    2.23115
       O    12.55565   17.02562    2.79928
      H1    12.05928   17.50026    3.49476
       H    16.04833   17.23223    0.45530
       O    16.68114   17.91738    0.50888
      H1    17.00059   18.17863   -0.34390
       H     9.11419   10.12385   -0.10486
       O     8.25447   10.39743   -0.37307
      H1     8.09819   11.16391    0.19326
       H    17.91286    9.26970    2.16586
       O    18.23561    9.65312    2.99059
      H1    18.89567    9.05053    3.37859
       H    17.09132    9.37968    4.42795
       O    16.52637    9.38726    5.21075
      H1    16.25487    8.50035    5.38494
       H    16.54765    9.94302    0.46938
       O    16.95218    9.11116    0.57902
      H1    16.15130    8.53413    0.74118
       H    11.78688   10.76150   -2.24263
       O    12.03054    9.86855   -2.58633
      H1    11.44534    9.53578   -3.24663
       H    17.36647   11.03525    5.55726
       O    17.56577   11.96444    5.73585
      H1    18.43314   11.89500    6.14726
       H     7.41065   15.29561   -0.95179
       O     8.19740   14.82744   -0.62625
      H1     8.73943   15.33280   -0.03596
       H     9.88502   10.64614    5.39740
       O    10.09562    9.92294    4.75807
      H1     9.66426   10.20837    3.90290
       H    13.27487   16.63764    5.71027
       O    14.18366   16.76029    5.76686
      H1    14.29341   17.71963    5.63836
       H    14.19723   16.16808    0.52720
       O    14.15089   16.80812   -0.18689
      H1    13.22506   16.79870   -0.47532
       H    10.08843   14.45350    5.70552
       O    10.52330   13.58827    5.42667
      H1    11.42844   13.61577    5.79483
       H    14.77352   14.08302   -1.40420
       O    13.83522   14.37695   -1.61107
      H1    13.69887   15.25147   -1.35775
       H    12.98003    7.04292    4.29342
       O    13.13193    6.42729    5.06911
      H1    12.54253    6.85569    5.72293
       H    14.17170   13.08452    5.97537
       O    13.25180   13.01163    5.79162
      H1    13.11061   12.10162    5.57232
       H     8.80479   16.14928    6.58784
       O     9.06439   15.79992    5.73349
      H1     8.56245   16.23086    5.03579
       H    11.28312   16.34224   -2.50754
       O    11.47692   16.73037   -1.61752
      H1    10.67716   16.56828   -1.10089
       H    10.78902   16.26445   -4.70107
       O    10.99005   15.51112   -4.19461
      H1    10.18593   15.03468   -4.00683
       H    15.04767   12.09342    8.49853
       O    14.42504   11.42133    8.35470
      H1    14.48529   11.12183    7.46038
       H     9.76487   13.28178   -2.49638
       O     9.07161   13.74718   -2.98305
      H1     8.71481   14.27806   -2.29150
       H    13.51974    9.33384    6.56796
       O    13.99096    9.94277    6.00445
      H1    14.85269    9.59326    5.80330
       H    11.65854   19.78432    4.70582
       O    10.90355   19.35821    4.27903
      H1    10.93392   18.49924    4.74737
       H    10.24529   11.57085    7.71475
       O     9.62133   11.56890    6.93313
      H1     9.90200   12.38064    6.41893
       H    11.40845   17.19638    6.37968
       O    11.51067   16.73244    5.51128
      H1    10.69663   16.29171    5.32799
       H     8.58090   17.70869    0.07248
       O     9.30867   18.25318   -0.24441
      H1     8.88676   19.08454   -0.46312
       H     9.91977    7.09181    1.50003
       O    10.28055    6.48376    2.17456
      H1    11.13999    6.93615    2.48762
       H    11.72129   12.52096   -0.59264
       O    11.72123   12.59616   -1.55000
      H1    12.42754   13.23856   -1.68776
       H    14.95176    6.85426    0.19834
       O    14.30427    7.59400    0.28308
      H1    13.46231    7.29709   -0.08038
       H    13.62090    9.53013   -1.98293
       O    14.58381    9.45217   -1.85826
      H1    14.73402    8.74792   -1.25245
       H     8.58410   12.81206    1.36915
       O     7.73423   12.58527    1.01641
      H1     7.50052   13.32613    0.39518
       H    15.37170   15.25209    5.08184
       O    15.83275   14.41124    5.13627
      H1    16.77676   14.67848    4.97919
       H    15.92413   12.56021   -2.36803
       O    16.24481   13.18553   -1.64150
      H1    16.34540   12.53333   -0.89651
       H    10.87375   16.38641    1.96433
       O    10.00393   15.96751    1.79534
      H1     9.87239   15.09490    2.17981
       H    13.01593   10.15999    4.30683
       O    12.39042   10.37676    3.55733
      H1    11.55095   10.24158    4.02529
       H    13.10807   13.50089    1.95661
       O    12.56872   12.78263    1.64470
      H1    12.59784   12.09286    2.30869
       H    10.00279   13.24493    3.46701
       O     9.96333   13.31498    2.45703
      H1    10.88351   13.21374    2.13388

