153
frame 5 | Written by MDAnalysis XYZWriter (release 2.4.3)
       H    16.27922    5.79035   10.91422
       O    15.54048    6.45742   11.04088
      H1    14.87567    6.04247   11.60947
       H    18.42267    5.51090    9.27306
       O    18.03769    5.37873   10.17078
      H1    18.19063    4.45892   10.13233
       H    17.46255   12.11403    4.30235
       O    17.11480   11.78717    3.44979
      H1    17.77869   11.16401    3.24233
       H    17.24924   18.63853   12.93538
       O    17.94314   18.07292   13.27543
      H1    18.82693   18.39754   13.07887
       H    12.05710   13.33001   16.42468
       O    12.64014   13.70681   17.07673
      H1    13.08032   12.97073   17.44490
       H    18.58020   11.45335   11.16329
       O    19.13904   11.56779   12.01684
      H1    19.38396   10.71122   12.30404
       H    19.55108   17.29407   17.54380
       O    19.55041   17.46811   16.59916
      H1    18.87333   16.84981   16.30029
       H    19.13277    6.83926    7.72236
       O    19.44530    5.89038    7.72878
      H1    18.61987    5.29734    7.56373
       H    12.46461   11.35855    9.07881
       O    11.62934   11.40844    9.60595
      H1    11.67061   12.30597    9.99359
       H    14.61058   17.23823    9.31865
       O    14.79073   17.10678   10.25685
      H1    15.53762   16.47549   10.22600
       H    15.09401    9.65843   10.04488
       O    15.48750    9.31304   10.84298
      H1    15.33550    8.39388   10.78774
       H    12.05140    7.23795   14.63587
       O    11.48338    7.13962   13.85974
      H1    11.49814    8.03839   13.42617
       H    14.03867   10.05818   11.90014
       O    13.28060   10.40934   12.40335
      H1    12.49302   10.08290   12.05841
       H    16.94097    8.98479    4.34926
       O    16.45834    8.89578    5.19396
      H1    16.34642    7.97558    5.42414
       H    16.50966   14.34494    9.35112
       O    17.00206   15.17299    9.51695
      H1    17.23539   15.09929   10.40080
       H    19.64826    8.47528   18.06692
       O    19.17871    7.65417   18.06236
      H1    18.27452    7.89590   18.27178
       H    10.81297   14.20581   15.18350
       O    10.69824   13.21376   15.24582
      H1    11.24898   12.91009   14.48869
       H    14.31498   14.42541   17.30262
       O    15.26239   14.86262   17.25013
      H1    15.17026   15.56686   17.88248
       H    17.04420   10.87672    6.03881
       O    17.29296   11.77013    6.28664
      H1    18.10336   11.63459    6.77367
       H    15.33395    6.61589    6.70534
       O    15.76459    6.54517    5.87348
      H1    15.06981    6.63211    5.23071
       H    17.03413   17.75995   14.84354
       O    16.46142   17.75830   15.59757
      H1    15.54596   17.45881   15.33178
       H    16.61152   12.39063    8.96825
       O    15.83484   13.01133    8.68941
      H1    16.01880   13.24689    7.78503
       H    14.02403   13.45117    5.70142
       O    13.26235   12.85772    5.83865
      H1    13.48732   11.97502    5.64216
       H    19.29807   14.71475   13.39719
       O    18.54113   14.05569   13.60087
      H1    18.65672   13.28777   13.07113
       H    14.64727   11.26649   14.91755
       O    14.14585   10.42211   14.98989
      H1    13.59734   10.32020   14.20392
       H    11.98630    7.06736   10.98342
       O    11.69769    7.80976   10.44699
      H1    10.79638    7.91657   10.71706
       H    15.00322   11.38663    8.47355
       O    14.59662   10.48384    8.60848
      H1    14.67946   10.10722    7.75206
       H    18.19314   14.57066   15.27017
       O    18.01049   15.07742   16.12424
      H1    17.14106   14.77366   16.44038
       H    13.58367    9.65919    5.81145
       O    14.17627   10.32402    5.45055
      H1    15.01060    9.79737    5.33226
       H    14.45047   12.18396   19.83849
       O    14.42460   11.84584   18.92644
      H1    15.25670   11.39447   18.78108
       H    15.21882   15.09874   13.14329
       O    14.42358   14.94634   13.66984
      H1    14.02160   14.09439   13.38083
       H    17.44802   12.05601   17.25372
       O    16.85659   11.28818   17.17402
      H1    16.37686   11.46203   16.34937
       H    18.87797   13.74876   16.92715
       O    19.12833   12.90579   17.35831
      H1    19.25834   13.13275   18.27476
       H    12.82452    6.07872   13.20964
       O    13.49552    5.62435   12.67970
      H1    14.06451    5.12264   13.32709
       H    10.90648   14.56627   10.38588
       O    11.14183   13.81069   10.89408
      H1    10.34707   13.29964   11.18091
       H    18.08220   10.21026    9.21249
       O    17.55596   10.88939    9.78568
      H1    16.79453   10.45845   10.11100
       H    18.41952   16.25161    8.82568
       O    18.97288   16.76769    8.17504
      H1    18.37982   17.43872    7.89644
       H    13.06619   16.40169   12.71453
       O    12.84861   17.08949   12.09517
      H1    13.62757   17.15194   11.52142
       H    14.09250   16.21269   14.88979
       O    13.89723   17.09172   15.27488
      H1    13.90732   16.92167   16.24068
       H    17.99873    7.36055   14.73674
       O    18.85009    7.35573   15.20011
      H1    18.84268    7.63915   16.11322
       H    14.74389   15.70070    6.63399
       O    15.36574   15.04692    6.32019
      H1    15.89165   15.50271    5.69199
       H    16.17509    8.67184   14.52761
       O    16.49803    7.93043   14.03247
      H1    16.21947    7.97859   13.10712
       H    15.49762    5.28741   15.63201
       O    16.11660    5.21000   16.35457
      H1    15.69487    5.05949   17.19739
       H    16.76517   13.14893   14.30630
       O    15.93394   12.91724   14.72997
      H1    15.46360   13.70951   14.95813
       H    11.97310   13.31486   12.23668
       O    12.37249   12.98405   13.04957
      H1    12.78998   12.21358   12.71542
       H    13.23001    6.07396    8.27230
       O    14.21217    6.03289    8.20104
      H1    14.55311    6.10527    9.08301
       H    19.69205    8.92225    8.36910
       O    18.78449    8.59270    8.64386
      H1    18.93640    8.11162    9.44493
       H    16.97635   16.54726   12.28564
       O    16.85158   15.64004   12.24621
      H1    17.61019   15.24010   12.69737
       H    14.63030    7.27016   15.02510
       O    13.70798    7.16177   15.36502
      H1    13.63408    7.85449   16.06639
       H    16.65553    9.84779   17.99998
       O    16.38683    8.97729   18.40525
      H1    16.65211    9.12880   19.32871
       H    13.32053    9.66480   16.74791
       O    13.04118    8.91109   17.31031
      H1    13.64704    8.86949   18.07247

