153
frame 4 | Written by MDAnalysis XYZWriter (release 2.4.3)
       H    -7.20561    8.84373  -17.67394
       O    -8.08761    9.28956  -17.50475
      H1    -8.40101    8.79105  -16.77535
       H   -11.01866    9.62930  -12.73203
       O   -10.76480    8.80367  -13.21251
      H1   -11.49347    8.17544  -13.33508
       H    -5.64779   10.94858  -12.25691
       O    -5.96901   11.82565  -12.26990
      H1    -6.68228   11.80635  -11.59894
       H    -9.44038    5.25232   -7.83487
       O    -9.62846    5.58163   -8.72625
      H1    -9.49516    4.83421   -9.33395
       H   -11.54034    7.53973  -17.65880
       O   -10.59984    7.23182  -17.65147
      H1   -10.22655    7.61277  -18.43254
       H   -11.80744   14.18990  -10.65835
       O   -12.67752   13.82328  -10.31826
      H1   -13.14520   13.49083  -11.04669
       H   -14.01430   12.20533  -12.99953
       O   -14.24605   11.87966  -12.13975
      H1   -15.08336   12.33397  -12.02309
       H    -7.87330    9.84665   -8.22106
       O    -8.44894    9.49633   -8.91499
      H1    -9.13340    9.11796   -8.36181
       H   -15.88260    6.48687  -16.56345
       O   -15.76661    5.52805  -16.58393
      H1   -14.87711    5.29544  -16.85472
       H   -10.91534    5.65862  -18.46283
       O   -11.11625    4.82978  -18.89606
      H1   -11.98511    4.59691  -18.53379
       H    -6.60663   11.83475  -16.87377
       O    -6.55684   11.30594  -16.07767
      H1    -7.17105   10.55427  -16.29175
       H   -12.84119    6.99445  -15.89838
       O   -13.12527    7.35894  -16.74792
      H1   -13.30560    8.32827  -16.53597
       H   -13.71436    9.65432   -9.74331
       O   -12.85305    9.36751  -10.00119
      H1   -12.33899   10.20992  -10.03499
       H    -6.21417    6.03578  -15.50967
       O    -5.90813    5.71895  -14.63583
      H1    -5.08752    5.24464  -14.72395
       H   -10.25624   11.53116  -10.02394
       O   -11.07424   11.59062   -9.46873
      H1   -11.52926   12.43569   -9.73754
       H   -10.25164   14.24773  -14.26680
       O   -10.63413   13.71682  -13.60660
      H1   -10.08756   12.91525  -13.74701
       H   -10.88919    5.90116  -11.73987
       O   -10.16028    6.21236  -12.28311
      H1    -9.59055    6.62071  -11.63808
       H   -14.22340   10.16860  -19.04596
       O   -14.99563    9.91586  -19.53514
      H1   -14.96174    8.97344  -19.55314
       H   -11.60698    4.46251  -10.42710
       O   -11.99419    3.80788  -10.99220
      H1   -12.77543    4.19493  -11.36147
       H   -16.31059    7.36660  -12.50003
       O   -15.54544    7.21185  -11.92452
      H1   -14.99382    7.98654  -12.02466
       H   -14.59132    6.94528   -8.15450
       O   -15.43303    7.34353   -8.35145
      H1   -15.79962    6.66203   -8.92318
       H   -12.62228   13.80836  -14.02040
       O   -13.49110   13.49062  -14.19341
      H1   -13.38199   13.37956  -15.13656
       H   -12.92432    5.74578   -6.51244
       O   -13.24099    5.40922   -7.36956
      H1   -12.57768    5.62725   -8.05103
       H    -8.00496    9.08201  -12.22028
       O    -8.16510    9.45365  -13.14565
      H1    -9.10911    9.44988  -13.11028
       H   -10.85032    3.02042  -12.20591
       O   -10.08147    2.54690  -12.62033
      H1    -9.55088    3.17958  -13.13501
       H    -9.88510   10.76844  -15.41607
       O   -10.61871   10.11430  -15.56798
      H1   -10.54973    9.66946  -14.68512
       H    -9.45484    2.73036  -11.10749
       O    -9.25018    2.86656  -10.14078
      H1    -9.83365    2.16358   -9.71402
       H   -12.07113    7.47417  -10.22299
       O   -11.77306    6.58791  -10.02225
      H1   -11.00063    6.68970   -9.48113
       H   -17.80198    7.89021  -15.96526
       O   -16.82560    8.04022  -16.04363
      H1   -16.55621    8.39847  -15.23122
       H   -10.06365    3.22386  -17.80568
       O    -9.64944    2.54792  -17.24511
      H1   -10.29993    2.54053  -16.51419
       H   -10.97625    9.90099  -18.19799
       O   -11.21650   10.17986  -19.09487
      H1   -11.19645    9.42176  -19.68543
       H   -16.28196    6.34496  -10.84560
       O   -16.69674    5.68870  -10.16729
      H1   -17.63485    5.99219  -10.13618
       H   -14.53560   10.54093  -15.44663
       O   -15.14266   10.52640  -14.65254
      H1   -15.58561   11.40434  -14.63255
       H   -14.76733    5.52044  -11.80179
       O   -14.47305    4.77775  -12.39779
      H1   -14.81619    3.96585  -11.95475
       H   -10.83070   11.76459   -7.87292
       O   -10.57149   11.95484   -6.93224
      H1   -10.93736   12.88232   -6.90120
       H    -8.65004    8.26328  -14.28628
       O    -8.66749    7.76664  -15.15364
      H1    -9.56894    7.29320  -15.13136
       H    -5.88942    5.73070  -10.85117
       O    -6.24991    5.43714  -10.00059
      H1    -5.88563    4.62641   -9.68722
       H   -11.37048    8.16481   -7.41004
       O   -10.40270    8.26944   -7.23133
      H1   -10.35865    8.10715   -6.29938
       H   -13.76978    3.84967  -18.61817
       O   -13.33021    3.98824  -17.76779
      H1   -13.72176    3.31410  -17.17048
       H    -7.34577    6.73435  -10.79580
       O    -7.76866    7.51600  -11.07565
      H1    -8.05107    7.89560  -10.16547
       H   -13.41585   12.84829  -17.83643
       O   -13.89053   12.84088  -17.00057
      H1   -14.60768   13.46746  -17.13649
       H   -13.37188   11.25396  -16.52662
       O   -13.09850   10.29849  -16.43108
      H1   -12.36517   10.26836  -15.82423
       H    -3.41881    7.34612  -13.46464
       O    -4.35665    7.48926  -13.42391
      H1    -4.99483    6.89232  -13.86604
       H   -12.79466    5.94498  -14.03146
       O   -12.05877    6.36571  -14.47898
      H1   -11.28060    6.09808  -14.00457
       H   -16.25037    4.48505  -15.04272
       O   -16.02195    3.86407  -14.33239
      H1   -15.46014    4.35889  -13.71264
       H   -13.55317    9.41102  -11.89895
       O   -13.67525    8.79316  -12.68188
      H1   -14.29103    9.32176  -13.23401
       H    -7.92915   11.79409  -14.75472
       O    -8.77668   11.81164  -14.35528
      H1    -8.63006   11.31018  -13.53222
       H   -17.99717    6.14141  -13.51965
       O   -17.69774    7.03313  -13.31385
      H1   -18.37667    7.61490  -13.04657
       H    -7.40326    3.65214  -14.78469
       O    -7.93213    3.84681  -13.99340
      H1    -7.80055    4.79134  -13.91771
       H    -8.02958   12.40525  -10.16277
       O    -8.49349   11.74817  -10.68703
      H1    -8.50972   11.02404  -10.09414
       H   -15.40857    9.00932   -8.70699
       O   -15.26819    9.93172   -8.81513
      H1   -15.72492   10.25787   -9.59709

