153
frame 2 | Written by MDAnalysis XYZWriter (release 2.4.3)
       H   -14.11610  -11.28138   10.09503
       O   -14.09948  -11.86514    9.35560
      H1   -14.11059  -11.23684    8.60144
       H    -5.73883  -17.57945   11.24295
       O    -5.75934  -16.88867   10.61775
      H1    -5.78536  -17.23177    9.73678
       H    -9.18145  -18.76832    1.63291
       O    -9.32141  -19.47644    0.89946
      H1   -10.14207  -19.90867    1.15107
       H   -11.24208  -14.39765   14.79323
       O   -11.54555  -15.27460   14.50515
      H1   -12.33108  -15.01517   13.94149
       H    -6.73627   -8.81673    8.65628
       O    -7.63262   -8.82721    9.10969
      H1    -8.12242   -9.55870    8.69750
       H    -5.96342  -18.08332   13.29599
       O    -5.44412  -18.77041   12.89845
      H1    -4.52792  -18.64892   13.06609
       H    -5.98260  -16.45297    6.39877
       O    -5.64440  -16.07157    5.55673
      H1    -6.44325  -15.61953    5.21503
       H    -9.02315  -16.36757    8.32588
       O    -9.40950  -16.84327    7.53575
      H1    -9.26402  -17.81502    7.59489
       H    -9.66821  -17.24130    2.86580
       O    -8.73076  -17.56838    2.93114
      H1    -8.54925  -18.05714    3.78325
       H    -7.01959  -12.09379    5.61271
       O    -7.00234  -11.62028    4.77111
      H1    -7.70588  -11.95202    4.19870
       H   -14.73908  -19.69885   11.44739
       O   -14.57367  -19.24275   12.30162
      H1   -13.71729  -18.80695   12.39312
       H    -9.91578  -11.04709    9.57837
       O    -9.43043  -11.30291    8.75213
      H1   -10.10431  -11.13079    8.04961
       H    -8.29485  -12.16852   10.07778
       O    -8.10743  -12.38703   11.01377
      H1    -7.67052  -11.54126   11.35828
       H   -11.44028  -10.18069   10.60223
       O   -10.65515  -10.51729   11.14755
      H1   -10.90742  -11.32373   11.66103
       H    -8.32780  -17.79974   13.88723
       O    -7.63566  -17.29323   13.45833
      H1    -7.93705  -17.35055   12.57161
       H    -8.21007  -13.70103   12.49662
       O    -7.63528  -14.22620   13.07034
      H1    -7.94372  -15.13874   12.97340
       H    -9.26858  -13.14843    2.87750
       O    -8.89091  -12.26813    2.94895
      H1    -8.37857  -12.30561    2.11539
       H   -11.17921  -14.48897    9.60284
       O   -10.92416  -15.10194   10.29861
      H1   -11.14291  -15.97534    9.98921
       H   -12.86811  -19.81258    5.43325
       O   -13.63400  -19.27976    5.14391
      H1   -13.27821  -18.40397    5.08093
       H   -15.70189  -12.92967    8.22494
       O   -16.10088  -13.83739    8.28714
      H1   -15.40163  -14.43721    8.53656
       H    -3.99227  -16.47100    5.55986
       O    -3.02950  -16.31861    5.51847
      H1    -2.64255  -17.14798    5.09542
       H    -4.35826  -15.89608    9.95618
       O    -3.84705  -15.02274    9.99023
      H1    -2.87307  -15.17392   10.02929
       H   -11.76223  -17.62786   11.97715
       O   -12.11066  -17.80690   12.87563
      H1   -11.76669  -17.01779   13.34095
       H   -10.93308  -10.34120    4.12743
       O   -10.96748   -9.91885    3.28528
      H1   -10.56622  -10.60468    2.76385
       H   -11.95149  -16.58395    2.90274
       O   -11.32072  -16.38832    2.15670
      H1   -11.44822  -15.42496    2.00830
       H   -11.37010  -13.01847    6.69122
       O   -10.96564  -13.09623    5.75549
      H1   -10.23436  -13.70984    5.83664
       H    -4.75821  -14.29835   11.54177
       O    -4.92980  -14.00412   12.45770
      H1    -5.93749  -14.16115   12.48821
       H    -7.34659  -16.33861    2.64700
       O    -6.50547  -15.88866    2.39106
      H1    -6.52975  -15.87753    1.45018
       H   -14.21401  -15.26194   12.68965
       O   -14.32970  -14.70185   13.48034
      H1   -15.16292  -14.91899   13.79018
       H   -10.81018  -11.53011    6.04402
       O   -10.75824  -10.53579    6.12407
      H1    -9.84068  -10.37789    6.08616
       H    -7.62711  -18.75160   10.82526
       O    -8.44320  -18.25316   10.53695
      H1    -7.99525  -17.56486   10.02322
       H   -14.44718  -19.00554    7.00651
       O   -14.16281  -18.47107    7.82062
      H1   -14.66154  -18.83937    8.59754
       H    -6.73510  -18.48674    7.49707
       O    -6.07869  -17.91934    7.87641
      H1    -5.24344  -18.50819    7.81404
       H    -3.31477  -19.22551    8.89401
       O    -3.42099  -18.27167    8.85219
      H1    -2.54757  -17.94320    8.51970
       H    -3.01346  -14.55945    5.39119
       O    -3.12557  -13.62340    5.28429
      H1    -3.79823  -13.57588    4.59013
       H    -5.83631  -12.43146    3.89360
       O    -5.18923  -13.06785    3.42642
      H1    -5.63489  -13.92135    3.25098
       H    -9.02191  -16.10072    5.85746
       O    -8.69809  -15.47953    5.18933
      H1    -8.23279  -14.78885    5.75586
       H   -11.20817  -13.95008   11.74006
       O   -11.55280  -13.16769   12.16534
      H1   -12.48294  -13.48887   12.37088
       H    -3.50567  -16.69089    2.26783
       O    -4.16968  -17.34313    2.57174
      H1    -5.05128  -16.87074    2.48039
       H   -13.82255  -12.13254    4.21852
       O   -14.55355  -12.45559    4.78439
      H1   -14.59387  -11.68475    5.38510
       H   -15.40774  -16.88829    7.39730
       O   -15.66525  -16.21056    6.79594
      H1   -16.35044  -15.68878    7.21481
       H    -9.23420  -14.91080    9.86566
       O    -8.33728  -15.19170    9.55608
      H1    -7.75705  -15.08581   10.27791
       H   -12.76571  -12.92912    8.83127
       O   -12.06361  -13.41168    8.40254
      H1   -12.53876  -13.98266    7.78413
       H   -13.99928  -13.83688    5.57445
       O   -13.65604  -14.65481    5.94810
      H1   -14.36980  -15.28567    6.18850
       H    -4.36085  -14.04177    8.58336
       O    -4.79194  -13.53378    7.87648
      H1    -4.14835  -13.56299    7.14800
       H   -11.44544  -18.58526    9.51755
       O   -12.09293  -17.86039    9.66050
      H1   -12.71393  -17.93559    8.91026
       H    -7.97131  -14.01321    8.08554
       O    -7.46056  -13.77588    7.27310
      H1    -6.55636  -13.79873    7.53326
       H   -13.95395  -16.52560    3.71118
       O   -13.17643  -16.64568    4.26324
      H1   -13.29576  -15.85502    4.90002
       H    -5.70335  -12.15449   10.66340
       O    -5.14968  -11.92439    9.93044
      H1    -5.31777  -12.58177    9.29503
       H   -15.74036  -16.05677   11.27500
       O   -14.81087  -16.32458   11.25667
      H1   -14.91645  -17.23545   11.41093
       H   -12.43620  -17.05261    0.80487
       O   -12.98425  -17.13394    0.01219
      H1   -13.86981  -16.72816    0.18837

