153
frame 1 | Written by MDAnalysis XYZWriter (release 2.4.3)
       H    17.05310   11.86372    3.51814
       O    16.64829   11.50243    2.69033
      H1    17.34928   10.95863    2.29453
       H    18.55052    9.69530    0.57460
       O    18.75630   10.11620    1.40161
      H1    19.72682   10.02245    1.52193
       H    16.80882   14.26557   -6.82960
       O    16.33296   14.68148   -6.11521
      H1    15.37322   14.55307   -6.31519
       H    18.08179   16.87544   -7.57676
       O    17.13834   16.88149   -7.63042
      H1    16.84764   16.20824   -6.96721
       H    17.11766   15.60098  -12.11121
       O    16.82973   15.88495  -11.24799
      H1    16.37434   15.15499  -10.82871
       H    14.62235   14.33472    1.82904
       O    14.97464   14.39521    0.93730
      H1    15.82385   13.87629    0.86633
       H    13.89711   18.43124   -5.62936
       O    13.96712   18.09999   -6.50309
      H1    13.14818   17.61947   -6.68684
       H    15.46878   10.13184   -3.13051
       O    15.71637   11.09805   -3.26755
      H1    15.06486   11.57283   -2.72105
       H    18.55695   13.92057   -4.03341
       O    18.95268   14.55254   -3.45157
      H1    19.87758   14.19860   -3.33726
       H    16.05845   12.99862  -11.07247
       O    16.97963   12.71618  -10.91858
      H1    17.09525   12.97860   -9.99160
       H    18.80049   13.89230    1.74515
       O    19.70696   13.79221    1.44877
      H1    20.28770   13.89537    2.24350
       H    14.81815   11.66343   -8.85065
       O    15.08367   12.22937   -8.10474
      H1    14.99473   13.15411   -8.35322
       H    12.39141   18.10119    1.30088
       O    13.05586   18.43766    1.88281
      H1    12.50766   18.89033    2.53652
       H    18.81965   11.30350   -4.27526
       O    18.38513   11.44262   -3.41241
      H1    17.47913   11.48533   -3.59494
       H    15.88567   11.91468   -0.82299
       O    15.54214   11.20940   -0.25068
      H1    16.23688   11.41266    0.41803
       H    14.93654   18.72789   -2.55613
       O    14.23468   18.67933   -3.20118
      H1    14.30592   17.72354   -3.41046
       H    18.93403   17.01867    2.25013
       O    19.66267   17.64423    2.05667
      H1    19.23920   18.50259    2.23187
       H    11.09370   16.76950   -6.11005
       O    11.49880   16.22779   -6.80464
      H1    11.86531   15.56196   -6.22243
       H    14.03399   16.29894    3.05495
       O    13.76849   15.49196    3.42747
      H1    13.50107   15.72075    4.35564
       H    15.86334   18.49467   -0.55163
       O    15.90767   19.39142   -0.93922
      H1    16.64822   19.35596   -1.59250
       H    15.67571   17.29435  -11.40827
       O    15.38730   18.25005  -11.40166
      H1    15.21258   18.35956  -10.46765
       H    18.85108   19.81268  -11.24355
       O    19.26210   19.16588  -11.82425
      H1    18.60236   18.47842  -11.98969
       H    11.81938   18.43946   -1.51313
       O    11.66715   18.49800   -2.47736
      H1    12.57232   18.58749   -2.80775
       H    19.04427   10.86395   -7.06372
       O    18.29709   10.64816   -7.67593
      H1    17.68042   10.15590   -7.15941
       H    17.70494   10.49913   -1.65789
       O    17.92606    9.79263   -1.06520
      H1    16.99764    9.36112   -0.96647
       H    12.73695   11.09684   -2.94938
       O    12.28511   10.34012   -3.35208
      H1    11.56161   10.19022   -2.69556
       H    15.49736   19.43372   -8.30011
       O    16.40798   19.48368   -8.10194
      H1    16.71394   18.57868   -7.78912
       H    12.54588   17.35862    5.84854
       O    13.46890   17.10622    5.95502
      H1    14.02382   17.62104    5.40768
       H    15.19597   16.02202    0.37963
       O    15.15737   16.92351    0.07194
      H1    14.17923   17.11177   -0.03173
       H    18.25977   13.12639   -1.08268
       O    17.30445   13.33898   -0.89759
      H1    17.13313   14.19237   -1.27493
       H    18.25887   12.48366   -8.29617
       O    18.14778   13.44137   -8.39588
      H1    18.66100   13.58079   -9.25831
       H    16.20204   18.54220    4.79754
       O    15.45563   18.21907    4.32213
      H1    15.01950   19.05948    4.02253
       H    17.63922   19.03784    6.26174
       O    17.95392   18.63860    5.46380
      H1    18.85269   19.01475    5.25955
       H    14.29239   15.23744   -9.14297
       O    15.20102   15.04193   -8.96455
      H1    15.66284   15.86245   -8.85592
       H    11.93104   16.11151   -1.03888
       O    12.08738   16.64239   -0.26114
      H1    12.21135   15.97747    0.40110
       H    18.47250   14.91583  -10.88331
       O    19.26652   14.71900  -10.37337
      H1    19.34015   15.49387   -9.79914
       H    11.63640   15.62267   -3.17809
       O    12.14353   15.10499   -2.49116
      H1    11.48362   14.43984   -2.17099
       H    11.17376   13.66976   -0.31177
       O    10.42329   13.48679   -0.84082
      H1     9.76627   14.16012   -0.57748
       H    11.78934   20.17347    4.67310
       O    11.65311   19.51268    3.98804
      H1    11.13385   18.82023    4.41027
       H    14.87916   11.57615   -4.91958
       O    14.14158   11.69014   -5.53030
      H1    14.56836   11.91812   -6.37337
       H     9.90086   18.34697    0.63947
       O    10.40663   19.19837    0.53966
      H1     9.64543   19.83841    0.54173
       H    14.39110   16.59621   -5.52440
       O    14.56956   16.27303   -4.66482
      H1    13.80495   15.70837   -4.39536
       H    17.25196   16.59964    4.06721
       O    17.83496   15.91567    3.62396
      H1    18.44131   15.72747    4.35111
       H    10.61329   17.42853   -3.56005
       O    10.42780   16.66732   -4.07213
      H1     9.44518   16.72076   -4.29259
       H    13.30796   13.56348   -2.54740
       O    13.64712   12.88936   -1.98698
      H1    13.18090   12.95139   -1.13039
       H    16.95079   14.41538    4.40167
       O    16.50204   13.75747    5.00919
      H1    17.23257   13.59968    5.67498
       H    12.26687   15.33148    2.69338
       O    11.36881   15.28896    2.24055
      H1    11.29714   14.33621    2.17658
       H    17.44552   17.46119   -2.27069
       O    17.92358   18.22062   -2.72848
      H1    18.85003   18.06583   -2.39846
       H    13.64538   13.26318    0.56637
       O    12.66655   13.21876    0.57684
      H1    12.48791   12.54359    1.22519
       H    16.37471   16.03565   -3.01675
       O    16.77441   15.80343   -2.12888
      H1    17.66182   15.48421   -2.39006
       H    13.22021   13.31348   -5.12006
       O    12.73201   14.13014   -5.03271
      H1    12.12319   13.99593   -4.32030

