153
frame 9 | Written by MDAnalysis XYZWriter (release 2.4.3)
       H    -9.12163  -16.73209   -4.38292
       O    -8.85311  -16.49600   -5.24413
      H1    -8.31614  -17.25737   -5.47902
       H    -6.97358  -10.47630    1.37124
       O    -7.10054  -11.32503    0.81624
      H1    -7.31593  -11.09470   -0.12003
       H   -14.76777  -13.44750   -0.50881
       O   -15.20070  -13.83423   -1.29442
      H1   -15.97491  -14.20316   -0.88183
       H    -4.55684  -17.90767   -3.63279
       O    -3.71987  -18.17190   -4.05384
      H1    -3.44315  -17.34260   -4.38973
       H    -6.29973  -15.27444    6.35949
       O    -5.76642  -15.78455    5.65858
      H1    -6.31727  -16.25634    5.08999
       H    -9.10485  -18.67254    2.70484
       O    -8.72827  -19.39344    3.20136
      H1    -9.20101  -19.42534    4.07322
       H    -9.50167  -15.23976   -8.19892
       O    -9.05351  -14.42128   -8.02338
      H1    -8.84746  -14.19700   -7.06199
       H    -7.08345  -19.08827   -5.32414
       O    -6.73955  -18.19448   -5.45148
      H1    -6.39688  -18.24948   -6.34513
       H   -11.57653  -14.48311    2.17173
       O   -11.34385  -13.64833    1.72204
      H1   -10.41547  -13.46182    1.91466
       H   -10.23053  -12.89867   -1.91734
       O    -9.95300  -12.61758   -0.99666
      H1   -10.54366  -11.95499   -0.70716
       H   -15.95017  -18.56585    1.01373
       O   -15.52966  -17.72131    0.91810
      H1   -15.08343  -17.58613    1.71806
       H    -4.39424  -11.51675   -4.03677
       O    -4.51009  -12.47647   -4.03454
      H1    -4.76977  -12.67420   -4.98164
       H   -11.00390  -19.49775   -0.02285
       O   -11.61145  -19.11584   -0.60737
      H1   -11.69936  -18.19667   -0.31665
       H   -15.06399  -17.48518    4.12748
       O   -14.35487  -17.85938    3.60032
      H1   -14.27614  -18.82983    3.74887
       H   -15.74037  -18.12345   -5.50712
       O   -15.29538  -17.73150   -6.24359
      H1   -14.72637  -17.01185   -5.94435
       H   -12.20742  -10.76313    2.39786
       O   -12.37789  -10.95524    1.45947
      H1   -12.32358  -11.92069    1.31529
       H   -13.34287  -13.44494    1.58176
       O   -14.25075  -13.13241    1.29352
      H1   -14.78015  -13.12606    2.08847
       H   -11.07695  -17.13752    1.91646
       O   -10.10897  -17.21527    2.10591
      H1    -9.72972  -16.73080    1.36459
       H   -10.52215  -16.07127    4.24028
       O   -11.13720  -15.63078    4.83075
      H1   -10.67102  -15.80941    5.66965
       H    -7.38405  -17.98569    3.51371
       O    -6.56784  -17.44124    3.46484
      H1    -6.58852  -16.91299    2.67924
       H    -4.08054  -12.74175    1.43523
       O    -3.78724  -13.27850    2.20450
      H1    -4.59352  -13.50036    2.71320
       H   -10.27091  -10.62073   -6.49900
       O    -9.92375  -11.06057   -5.74627
      H1   -10.73864  -11.17164   -5.17618
       H    -8.57834  -14.54183   -5.05625
       O    -8.38884  -13.76469   -5.50608
      H1    -9.22093  -13.23792   -5.52650
       H    -3.77745  -14.98780   -0.58084
       O    -4.01930  -14.85206   -1.52191
      H1    -3.18790  -14.65642   -1.98335
       H    -6.45957  -17.20652   -3.91676
       O    -6.03593  -16.95315   -3.10066
      H1    -6.17792  -16.04549   -2.94804
       H    -6.86606  -14.18363    2.77601
       O    -6.16608  -14.02093    3.40133
      H1    -6.03555  -14.72774    4.01735
       H    -8.62383  -10.32432   -4.82307
       O    -8.06083   -9.89785   -4.14722
      H1    -8.04555  -10.45311   -3.37958
       H   -12.42305  -10.11773   -4.04365
       O   -12.39090  -11.03238   -3.96237
      H1   -13.30760  -11.26430   -4.00034
       H   -17.75061  -15.71060   -0.41703
       O   -17.59214  -16.66812   -0.53669
      H1   -16.97225  -16.89657    0.15782
       H    -6.29106  -13.52271   -3.46011
       O    -6.51114  -14.15096   -2.76829
      H1    -5.65892  -14.28471   -2.23150
       H    -3.91266  -17.97671    2.20608
       O    -4.38851  -18.75076    2.45527
      H1    -5.12836  -18.48425    2.99916
       H    -8.53083  -12.09336   -1.60586
       O    -7.63079  -11.67288   -1.86020
      H1    -7.06133  -12.43256   -2.02458
       H    -5.33060  -11.77034    0.47035
       O    -4.39493  -11.84348    0.13525
      H1    -4.36468  -12.55551   -0.48319
       H   -14.79443  -13.38512   -4.41478
       O   -14.29827  -14.04084   -3.84420
      H1   -14.58238  -13.99803   -2.90347
       H   -14.36625  -17.14514   -1.77302
       O   -14.83168  -17.58946   -2.47900
      H1   -14.75720  -18.48198   -2.11445
       H    -6.43515  -16.82103    0.52654
       O    -6.37807  -16.14895    1.25738
      H1    -7.07792  -15.51029    0.99683
       H    -7.72054  -12.78730    1.35013
       O    -8.01065  -13.72988    1.36519
      H1    -8.36678  -13.95472    0.49328
       H   -12.72835  -14.07455   -8.52908
       O   -12.73638  -14.96811   -8.31864
      H1   -11.85768  -15.14545   -8.03700
       H    -9.23373  -17.16381   -0.52974
       O    -9.51375  -16.30573   -0.32662
      H1    -9.79536  -16.07624   -1.22104
       H   -11.36328  -17.15813   -7.22972
       O   -10.68067  -16.54642   -7.34847
      H1   -10.20142  -16.61173   -6.53858
       H   -12.07935  -12.95525    6.71918
       O   -11.38643  -13.00773    6.01678
      H1   -11.69383  -13.61241    5.33267
       H   -12.90323  -18.00232   -3.57547
       O   -12.18076  -17.63597   -4.15611
      H1   -12.62122  -17.10155   -4.79501
       H    -6.49365  -18.93703   -0.23747
       O    -6.87069  -18.11684   -0.58062
      H1    -6.50788  -18.00774   -1.48422
       H    -6.58739  -13.82402   -6.16133
       O    -5.75097  -13.58987   -6.57224
      H1    -6.00477  -12.89967   -7.20978
       H   -11.60139  -15.94954   -1.92792
       O   -11.06929  -15.72972   -2.69389
      H1   -11.37780  -16.53308   -3.21719
       H   -13.22112  -16.75077    2.21559
       O   -12.80015  -15.87201    2.37193
      H1   -13.01725  -15.61093    3.29435
       H   -15.64422  -15.28812   -3.96678
       O   -16.47035  -15.75120   -4.13075
      H1   -16.19076  -16.55363   -3.63816
       H   -10.54157   -9.41958   -1.93849
       O   -11.15318  -10.10729   -1.50668
      H1   -11.56859  -10.67037   -2.18770
       H   -11.50961  -12.72872   -3.92632
       O   -10.69336  -13.26049   -3.83134
      H1   -10.99620  -14.09727   -3.44374
       H   -13.68355  -15.65173   -0.27621
       O   -13.38874  -16.56542   -0.51407
      H1   -14.03838  -17.03431   -0.07307
       H   -13.69178  -14.92383   -5.42173
       O   -13.62787  -15.76608   -5.91288
      H1   -13.24864  -15.53197   -6.82174

