156
frame 2 | Written by MDAnalysis XYZWriter (release 2.4.3)
       H    -6.51341    5.89477   -5.26637
       O    -5.99092    5.12143   -5.30793
      H1    -6.47469    4.44911   -4.76397
       H   -12.36454    7.77442   -4.73457
       O   -11.57065    8.29065   -4.72655
      H1   -11.20824    8.28277   -3.86068
       H    -7.34736    6.22728   -8.12988
       O    -7.88550    6.77892   -7.52909
      H1    -8.79498    6.55649   -7.71327
       H   -14.34845    1.70378   -6.05364
       O   -13.66562    1.20845   -5.53835
      H1   -13.35945    0.53050   -6.19967
       H   -10.04231   -0.60578   -9.64651
       O   -10.61233    0.11224   -9.98083
      H1   -11.12333   -0.29939  -10.72089
       H   -10.26009    5.36076   -7.23270
       O   -10.46706    5.48195   -8.17441
      H1   -10.04268    4.73254   -8.67744
       H    -7.48463    2.75661   -4.86760
       O    -6.81856    2.85066   -4.12140
      H1    -7.13771    2.14510   -3.49546
       H   -11.51498    5.24838   -4.99420
       O   -10.67179    5.49335   -5.35676
      H1   -10.42233    6.34299   -4.97546
       H   -13.23284    5.89807   -2.47793
       O   -13.22330    6.32137   -3.34980
      H1   -13.45203    7.26583   -3.16151
       H    -8.07092    8.27058   -8.96948
       O    -8.47362    8.91079   -9.60277
      H1    -9.42990    8.83787   -9.35922
       H   -18.53699    4.58928   -9.99612
       O   -19.10622    3.91536  -10.33503
      H1   -19.00509    3.09087   -9.79517
       H   -14.68570    8.89789   -2.02106
       O   -14.22033    8.67753   -2.87387
      H1   -14.39233    9.33632   -3.47132
       H    -9.11439    4.14842   -6.07816
       O    -8.77090    3.26140   -6.17556
      H1    -9.50531    2.63200   -6.17752
       H   -16.11423    2.29648  -12.05220
       O   -16.52744    3.03467  -11.50739
      H1   -17.39043    3.04586  -11.93645
       H   -14.25300    9.09195  -11.29320
       O   -13.79423    8.26685  -11.60720
      H1   -12.90000    8.51645  -11.73009
       H   -13.53578   -0.64870   -8.01723
       O   -12.55579   -0.59988   -7.96468
      H1   -12.29634   -0.29795   -8.84864
       H   -12.95760   10.16898   -6.86759
       O   -12.98561    9.78291   -7.71204
      H1   -13.66423   10.27898   -8.17344
       H   -10.98054    9.62204  -12.99979
       O   -11.21089    9.30364  -12.14551
      H1   -11.40128   10.12000  -11.61098
       H   -11.51193    6.26288  -13.24922
       O   -10.87468    5.67293  -12.82808
      H1   -10.19671    6.17541  -12.34982
       H   -13.56742    2.81990   -9.19048
       O   -12.84594    3.38925   -9.49889
      H1   -13.09099    4.30763   -9.59131
       H    -7.45943    3.43569   -7.80364
       O    -6.49769    3.63438   -7.71673
      H1    -6.39001    4.12910   -6.92141
       H   -15.98590    5.14545   -4.57752
       O   -15.99869    5.85628   -3.93529
      H1   -15.06391    6.08702   -3.62147
       H   -17.07803    7.25206   -3.89272
       O   -17.91243    7.79765   -3.77795
      H1   -17.82044    8.16080   -2.87956
       H   -14.42821    7.06056   -9.18648
       O   -15.30863    7.40132   -8.90637
      H1   -15.92883    6.86040   -9.45228
       H   -13.58962    5.89415   -6.53331
       O   -13.46475    4.91337   -6.65564
      H1   -12.78996    4.93145   -7.34645
       H   -11.46003    3.28090  -10.66289
       O   -10.69066    3.39341  -11.23544
      H1   -10.72220    4.32997  -11.61866
       H   -16.50353    3.54989   -6.71258
       O   -15.67223    3.10974   -6.69651
      H1   -14.99748    3.80071   -6.63502
       H   -13.69458   -1.39487   -3.85886
       O   -14.25060   -1.28126   -4.63450
      H1   -14.18958   -0.35188   -4.92808
       H    -9.97376    2.88890   -9.62452
       O    -9.34135    3.18329   -8.98135
      H1    -9.69803    2.85935   -8.14465
       H   -12.52411    6.65784  -10.43895
       O   -12.69356    6.24956   -9.56254
      H1   -11.80699    5.97044   -9.23520
       H   -17.94242    6.97470   -7.32420
       O   -17.11981    6.97067   -6.83941
      H1   -16.44448    6.99088   -7.52263
       H   -11.18537    2.22347   -1.37485
       O   -12.11178    2.41029   -1.62142
      H1   -12.06730    2.67303   -2.60023
       H   -15.44057    1.98146   -9.88600
       O   -14.93724    1.78567   -9.07036
      H1   -15.37182    2.17268   -8.32444
       H   -16.80821    5.25330  -10.71157
       O   -17.16289    5.79699  -10.00117
      H1   -17.64863    6.51162  -10.57526
       H   -15.23739    4.80880  -13.26854
       O   -14.36332    4.32585  -13.34145
      H1   -14.37019    3.76274  -12.55110
       H    -9.57167   10.47506   -7.28767
       O    -9.46868   11.45657   -7.04054
      H1   -10.03174   11.92983   -7.66374
       H    -9.31642    1.09727  -13.02396
       O    -9.84604    1.83595  -13.37526
      H1    -9.97600    2.45174  -12.65718
       H    -6.19254    5.24879  -10.50123
       O    -6.88296    5.31619   -9.80464
      H1    -6.59438    4.68385   -9.10642
       H   -11.24189    8.88574   -7.54654
       O   -10.33756    8.79535   -7.24070
      H1   -10.41746    8.42785   -6.35781
       H   -12.67717    4.16256   -1.10652
       O   -12.82177    5.05418   -0.72487
      H1   -13.65450    5.07788   -0.19728
       H   -12.87471    2.79094   -4.84650
       O   -12.74708    3.42660   -4.14955
      H1   -13.42069    4.12775   -4.36099
       H   -15.90011   10.45747   -8.33345
       O   -16.11516   10.97355   -7.55351
      H1   -15.31649   11.37628   -7.27746
       H    -8.29093    6.09332  -10.76715
       O    -8.82428    6.74185  -11.30959
      H1    -8.63702    7.54179  -10.92408
       H   -17.75461    5.34624   -5.86482
       O   -17.81673    4.35785   -5.87477
      H1   -18.72560    4.09396   -6.20336
       H   -14.63059    1.30521   -3.47270
       O   -15.21661    1.57639   -2.75302
      H1   -14.75002    1.32267   -1.97154
       H   -16.88717    1.76787   -3.49266
       O   -17.79852    1.93273   -3.85570
      H1   -17.60898    2.45906   -4.61246
       H    -7.72953    2.59397  -10.06462
       O    -6.98031    2.05231  -10.39543
      H1    -6.88577    2.44256  -11.31182
       H   -11.11112   11.08570   -6.11472
       O   -11.86263   10.87977   -5.54598
      H1   -11.67198   10.00816   -5.07410
       H   -11.05094    0.49950   -6.81834
       O   -10.56565    1.01764   -6.16260
      H1    -9.82707    0.42386   -5.92466
       H    -8.22969    6.52637   -3.00145
       O    -8.50381    7.32934   -3.61373
      H1    -9.06357    7.81138   -2.99981
       H   -13.98900    8.56753   -6.68548
       O   -13.95656    7.75485   -6.09819
      H1   -14.88119    7.66429   -5.83647
       H   -15.64003    8.96516  -10.05383
       O   -15.54572    9.93437  -10.21217
      H1   -16.35218   10.27602  -10.65115

