156
frame 3 | Written by MDAnalysis XYZWriter (release 2.4.3)
       H    15.23015   -0.86809   13.54638
       O    15.57951   -1.42399   14.24698
      H1    14.88352   -1.53342   14.88011
       H    14.64468    5.59038   18.56198
       O    14.28705    5.20368   17.77421
      H1    14.46916    5.87065   17.09874
       H     8.11353    5.69258   12.67654
       O     8.10230    6.56705   12.17320
      H1     7.24221    6.97977   12.37214
       H    15.61054    5.38758   11.78819
       O    15.12509    6.24186   11.81351
      H1    14.32267    6.08144   12.28968
       H    10.82637    8.07203   17.82074
       O    10.32303    8.12486   18.60153
      H1    10.49775    9.00491   18.86407
       H    12.75141    4.40305   17.88287
       O    11.91875    3.96665   18.18310
      H1    11.88034    3.13506   17.71969
       H    11.60453    7.24771   15.24543
       O    10.88394    7.28303   15.87488
      H1    10.79866    6.37975   16.23800
       H    17.26224   -2.89958   17.62776
       O    16.35277   -2.59865   17.38811
      H1    15.71288   -3.27594   17.66040
       H     5.60601    4.73550   18.96231
       O     5.17313    5.60951   19.07462
      H1     4.48649    5.76084   18.43209
       H    16.78872    0.29268   17.19342
       O    15.84172    0.13298   17.34399
      H1    15.79979   -0.81996   17.31684
       H     8.98445   12.10003   17.08496
       O     8.31596   11.45444   16.77708
      H1     8.67991   10.93549   16.05675
       H     9.68320    9.39106   13.02465
       O    10.22969    9.44479   12.23120
      H1    10.27345    8.58105   11.84701
       H    12.05092    2.36367   13.38689
       O    12.49970    1.68782   13.94478
      H1    13.15457    1.25679   13.40502
       H    14.70382    0.91343   11.99977
       O    14.24925    0.16798   12.41981
      H1    13.59814   -0.14084   11.82713
       H    14.74291    3.50236   13.63391
       O    14.55351    3.93606   14.46112
      H1    14.27674    3.23197   15.05158
       H    13.51860    7.70503   14.69655
       O    12.86183    8.14093   14.06031
      H1    12.74406    9.02112   14.49169
       H    12.98487   -2.01179   14.82690
       O    13.32790   -1.86484   15.71674
      H1    12.71010   -1.43801   16.28935
       H    18.25661    8.32184   17.49006
       O    17.40624    7.82986   17.69030
      H1    16.89988    8.50751   18.15374
       H     9.73883    8.69425   15.32711
       O     9.06774    9.26540   15.00956
      H1     8.19816    8.88252   15.29315
       H     8.73468    4.32649   19.24239
       O     9.35827    3.64512   18.89286
      H1    10.21076    4.06725   18.72060
       H    10.14347    1.12059   12.57554
       O     9.52307    0.34426   12.53024
      H1     8.71043    0.79336   12.75808
       H     6.05160    1.58215   14.08176
       O     6.89286    1.48231   13.57028
      H1     6.52954    0.91041   12.90918
       H    15.35276   10.97334   15.05321
       O    15.22447   10.11299   14.61217
      H1    14.65030   10.34094   13.87346
       H     7.27398    4.98128   15.47559
       O     6.81614    5.70130   15.94711
      H1     5.85376    5.59642   15.71378
       H     7.60012   -2.31857   17.46946
       O     8.19265   -2.63834   18.12734
      H1     8.74317   -3.32121   17.77744
       H    11.44836    6.05793   11.84434
       O    10.94394    6.66992   11.25504
      H1     9.99103    6.46578   11.36461
       H    14.79432    2.71965   18.66943
       O    15.54316    2.28267   19.16942
      H1    15.39835    1.36564   18.94972
       H    18.83361    6.21872   20.32309
       O    18.16690    5.88539   19.67392
      H1    17.98791    6.45880   18.91370
       H    12.16772   -4.09085   17.80271
       O    13.10663   -4.04379   17.64181
      H1    13.27728   -3.77260   16.70490
       H    15.78040    3.11065   11.25017
       O    15.72488    2.49636   11.98501
      H1    16.34861    1.75988   11.82226
       H    19.37498    0.98256   18.27573
       O    18.46267    0.71829   18.23705
      H1    18.21670    0.45796   19.11716
       H    13.27868   -0.71261   18.78767
       O    12.57191   -0.26397   18.30430
      H1    11.74945   -0.73394   18.52692
       H    12.70133   11.87494   19.40516
       O    13.16655   11.99715   18.56377
      H1    14.13416   11.99801   18.65965
       H    12.56649    6.55717   13.55335
       O    12.67862    5.65048   13.21920
      H1    13.29719    5.23378   13.82213
       H     5.91813    2.03751   18.06714
       O     5.36116    2.63789   18.56987
      H1     5.70823    2.48170   19.44785
       H     8.95384    4.11922   14.04682
       O     7.95573    4.29117   13.85223
      H1     7.56097    3.40632   13.94131
       H    10.23588    1.93800   17.94684
       O    10.78117    1.64659   17.20555
      H1    11.53214    1.12670   17.52758
       H     7.34178   -0.98152   15.68112
       O     6.70944   -1.61899   16.09928
      H1     6.83972   -2.44790   15.63036
       H    14.58154    1.43487   16.52024
       O    13.94610    2.14391   16.28097
      H1    13.41415    1.69253   15.57941
       H     6.60827    6.47438   18.66339
       O     7.34847    7.01539   18.31334
      H1     7.56190    6.67469   17.42801
       H    18.06809    5.00689   15.88059
       O    18.65213    5.72736   15.45029
      H1    18.01048    6.39372   15.06128
       H     7.58626    8.81955   18.53560
       O     7.40301    9.71413   18.73923
      H1     7.77187   10.23330   17.99219
       H    16.37827    8.60184   14.33262
       O    16.89871    7.81758   14.07122
      H1    16.56424    7.53174   13.24214
       H    10.33473    3.54780   11.61351
       O    10.90046    3.27135   12.30371
      H1    11.59318    3.89507   12.43646
       H    16.03771    3.81219   16.30652
       O    16.96358    3.66160   16.58114
      H1    16.81377    3.11802   17.39398
       H     9.70837   -0.02628   14.14754
       O     9.69797   -0.41085   15.05899
      H1    10.06808    0.31615   15.60546
       H    10.61987   -3.31925   14.07318
       O     9.86702   -3.05212   14.60670
      H1     9.87240   -2.12731   14.78597
       H    15.34895    7.02284   15.31036
       O    14.52713    7.07102   15.81413
      H1    14.54789    7.68399   16.53159
       H    15.78582   10.49478   18.66633
       O    15.91666    9.64195   19.14583
      H1    16.32624    9.80242   20.03676
       H     6.92633    7.53624   15.59866
       O     6.58032    8.41198   15.43728
      H1     5.83076    8.55209   16.01943
       H    12.93390   10.22498   18.01355
       O    12.73780    9.25769   17.85390
      H1    12.96861    8.94724   18.71666
       H    19.01713    1.40331   15.87032
       O    18.37365    1.62131   15.20016
      H1    17.77894    2.24369   15.60819

