156
frame 3 | Written by MDAnalysis XYZWriter (release 2.4.3)
       H   -10.81781  -15.92720   -8.06777
       O   -10.39077  -16.36362   -8.81147
      H1    -9.98129  -17.15248   -8.51041
       H   -10.40389  -18.73211   -6.44997
       O   -10.25658  -18.67719   -5.46670
      H1   -11.19645  -18.59060   -5.18495
       H   -14.95385  -19.64047    0.79144
       O   -14.95764  -19.44555   -0.15761
      H1   -14.27643  -18.77037   -0.28663
       H   -18.84029  -18.06876   -3.34542
       O   -19.67979  -17.62144   -3.26748
      H1   -19.97289  -17.93789   -2.44599
       H   -10.59166  -15.93970   -3.40681
       O   -10.13333  -15.29189   -4.02853
      H1    -9.50935  -15.91651   -4.46403
       H   -15.43731  -12.07752   -0.41767
       O   -16.13059  -11.69752   -0.98756
      H1   -16.90012  -12.24738   -0.81354
       H    -8.75020  -18.78683    1.64519
       O    -9.16072  -19.66500    1.31347
      H1   -10.00731  -19.72680    1.76926
       H   -13.56627  -18.35077   -4.60337
       O   -12.61453  -18.61295   -4.45617
      H1   -12.82058  -19.49146   -4.18812
       H   -11.47142  -14.99217  -11.62580
       O   -11.19474  -14.61849  -10.75191
      H1   -10.78266  -15.33862  -10.25077
       H    -9.36185  -17.08277    2.61255
       O    -8.49376  -17.49172    2.76144
      H1    -8.56029  -17.84542    3.62483
       H   -14.02804  -17.90815   -8.34756
       O   -14.44322  -17.42713   -7.59456
      H1   -15.34398  -17.20561   -7.91687
       H   -17.30084  -15.98925   -7.41926
       O   -16.93715  -16.43035   -8.19637
      H1   -16.55926  -15.69279   -8.67511
       H   -10.66967  -13.77862   -7.22002
       O   -10.02321  -13.09210   -7.28034
      H1    -9.80058  -12.87139   -6.36959
       H    -5.71580  -19.77106   -2.04634
       O    -5.86939  -19.19797   -1.23848
      H1    -6.71369  -18.74914   -1.36194
       H   -17.89044  -15.19172   -3.51003
       O   -18.89358  -15.11949   -3.42635
      H1   -19.15033  -15.99725   -3.32397
       H    -8.91519  -17.60144   -5.71370
       O    -8.27947  -16.86507   -5.48474
      H1    -7.78340  -16.66597   -6.33520
       H   -10.64641  -13.18462   -0.45773
       O   -10.07996  -12.44128   -0.74473
      H1   -10.64108  -11.64259   -0.68523
       H    -5.37923  -16.13237   -7.40112
       O    -6.11380  -16.76222   -7.60910
      H1    -6.69782  -16.30143   -8.26341
       H   -15.66642  -17.46154    0.37276
       O   -15.66432  -16.63774    0.87759
      H1   -15.58237  -16.96091    1.80210
       H    -9.15777  -19.34547   -0.62890
       O    -9.47698  -19.17884   -1.55342
      H1   -10.25320  -18.52621   -1.60054
       H   -16.23645  -17.42218    3.88296
       O   -15.53510  -17.66166    3.26313
      H1   -15.38109  -18.57822    3.12986
       H   -12.53727  -19.58050    5.36987
       O   -13.15911  -18.82624    5.18220
      H1   -12.91403  -18.33522    4.39830
       H   -10.11812  -19.17690   -9.04563
       O    -9.55290  -18.89398   -8.27514
      H1    -8.65993  -19.23527   -8.46971
       H   -14.82962  -13.61931    1.04806
       O   -14.02126  -13.15239    0.63428
      H1   -13.80446  -12.54562    1.35876
       H   -11.65770  -16.61252    2.18716
       O   -10.89750  -16.52508    1.52178
      H1   -11.18797  -15.81105    0.90196
       H    -7.02808  -16.20383    2.49519
       O    -6.22234  -15.62645    2.35833
      H1    -6.15092  -15.60151    1.41202
       H   -12.31964  -10.69923   -5.98284
       O   -12.21364  -10.44048   -5.04389
      H1   -13.00855   -9.95289   -4.83425
       H    -9.44322  -13.59856   -3.55621
       O    -9.46074  -12.67191   -3.46614
      H1    -9.71619  -12.52179   -2.56857
       H    -5.07004  -14.92616   -1.22135
       O    -4.51735  -14.25767   -1.66401
      H1    -3.65144  -14.57262   -1.92624
       H    -6.10453  -18.16283   -5.87520
       O    -5.64684  -18.47312   -5.14041
      H1    -6.31743  -18.58666   -4.44246
       H   -13.90941   -9.05413   -2.35766
       O   -13.99482  -10.06696   -2.13689
      H1   -14.26948  -10.55395   -2.92051
       H   -18.13109  -14.94240    0.05079
       O   -18.13293  -15.59905    0.78002
      H1   -17.16739  -15.81361    0.86238
       H    -4.71060  -13.14408   -4.46613
       O    -5.39406  -13.74179   -4.18157
      H1    -5.01678  -13.96657   -3.33940
       H    -7.79352  -11.66298   -3.31621
       O    -7.27477  -10.97080   -2.88015
      H1    -6.47771  -11.36042   -2.50098
       H   -16.22580  -10.77238   -4.42887
       O   -15.73955  -11.48241   -4.07064
      H1   -16.13184  -11.93078   -3.29508
       H    -7.00528  -16.27199   -1.01624
       O    -6.47502  -15.66485   -0.45651
      H1    -6.95923  -14.82299   -0.33533
       H   -12.79091  -18.95299  -10.27480
       O   -13.57627  -18.43327   -9.97976
      H1   -13.59286  -17.60255  -10.43413
       H    -7.80613  -15.58049  -10.43599
       O    -7.60119  -15.53112   -9.50242
      H1    -8.45368  -15.86685   -9.09164
       H    -6.85937  -12.34244   -0.04906
       O    -7.45457  -13.06583    0.15107
      H1    -8.29877  -12.66274   -0.12851
       H   -12.17653  -12.01495   -4.01949
       O   -12.32657  -12.92184   -3.85652
      H1   -11.40261  -13.26973   -3.82533
       H   -12.42548  -14.91544   -1.15589
       O   -12.04922  -14.58398   -0.35310
      H1   -12.79731  -14.05117    0.10265
       H   -12.61990  -15.33244   -6.29478
       O   -11.67031  -15.34377   -6.55224
      H1   -11.08325  -15.36347   -5.82205
       H   -11.60100  -11.81968   -7.64354
       O   -12.37579  -11.25968   -7.50902
      H1   -13.15902  -11.69517   -7.82609
       H   -15.38765  -19.14395   -5.17413
       O   -15.29970  -18.24305   -4.75596
      H1   -15.39887  -17.52354   -5.45873
       H    -8.48051  -17.83846   -2.55319
       O    -7.67905  -17.29902   -2.65141
      H1    -7.85897  -16.82076   -3.50794
       H   -11.82076  -17.12506   -1.64303
       O   -11.22408  -17.19738   -2.39381
      H1   -11.72289  -17.76425   -3.02132
       H   -13.63431  -16.98003    3.16863
       O   -12.76942  -16.72341    3.41666
      H1   -12.96053  -16.16976    4.20174
       H   -15.72295  -15.74568   -3.22641
       O   -16.38189  -15.82722   -3.91977
      H1   -16.55553  -16.78032   -3.95765
       H   -13.02777  -15.26378  -10.19723
       O   -13.88063  -15.60930   -9.93188
      H1   -13.72923  -16.04591   -9.06335
       H   -13.46623  -14.28351   -2.75506
       O   -13.92624  -15.12929   -2.56441
      H1   -14.02642  -15.50021   -3.44576
       H   -12.44846  -17.56872    0.29840
       O   -13.07877  -17.41744   -0.42075
      H1   -13.59479  -16.64285   -0.18252
       H   -14.55927  -13.38825   -6.51206
       O   -14.03335  -14.03032   -5.88806
      H1   -13.75064  -13.47521   -5.15322

