156
frame 10 | Written by MDAnalysis XYZWriter (release 2.4.3)
       H     2.73493    9.43099   -3.01649
       O     2.50953    9.56159   -3.97438
      H1     3.12410    8.91968   -4.46111
       H     5.12850   -0.04297   -2.29516
       O     4.71608   -0.91840   -2.50336
      H1     5.43316   -1.60863   -2.59821
       H     7.85796    9.18133   -2.09526
       O     6.98428    8.83327   -2.36450
      H1     6.87045    9.10627   -3.28131
       H    11.74050    5.98078   -7.45436
       O    11.18887    5.34977   -7.00350
      H1    11.63156    5.31349   -6.13353
       H     1.99934    4.43961    1.31099
       O     2.44311    3.67344    1.62096
      H1     2.11730    3.00848    1.03400
       H     7.29656    9.86635    4.10516
       O     7.88805    9.11781    3.92844
      H1     7.79113    8.93528    2.96238
       H     4.24792    6.97905   -4.37678
       O     4.02036    7.63171   -5.02358
      H1     3.96292    7.20415   -5.89089
       H    12.68415    9.45438   -3.62152
       O    13.04357    9.33725   -2.72809
      H1    12.77606    8.45372   -2.51116
       H    10.70037    3.95561   -1.91943
       O    11.66070    4.12945   -2.10291
      H1    12.05951    3.64599   -1.36298
       H     5.85266   11.65772   -1.07984
       O     5.41284   10.81930   -1.38626
      H1     6.13221   10.18882   -1.50610
       H    11.40349   12.32773   -3.30083
       O    10.45612   11.94721   -3.40574
      H1     9.90323   12.74129   -3.41573
       H     6.08911    2.86979   -0.98362
       O     6.35521    3.64037   -0.54280
      H1     5.54647    4.06900   -0.15395
       H     5.64539    5.92033   -2.24146
       O     4.80403    5.72374   -2.70815
      H1     4.21663    5.68207   -1.97032
       H     7.50725    9.05304    0.56965
       O     7.59485    8.24114    1.06948
      H1     8.45969    7.92292    0.87950
       H     6.64592    0.81939   -2.23351
       O     5.91494    1.25427   -1.81744
      H1     5.87957    1.04265   -0.86910
       H     5.40294    3.76473   -8.45969
       O     4.61912    4.28064   -8.63388
      H1     4.05566    4.13139   -7.87077
       H     1.60915    4.52781   -1.81543
       O     1.32722    3.60190   -2.01246
      H1     1.38053    3.59597   -3.00884
       H     3.61374    8.71195   -0.64652
       O     2.80966    8.75920   -1.20705
      H1     2.45340    7.85240   -1.23185
       H     7.30498    6.34107    4.50250
       O     6.81473    5.66107    3.91250
      H1     7.27450    5.55429    3.11647
       H     5.67543    7.84844    0.80602
       O     4.78925    7.59361    0.51508
      H1     4.29173    7.87132    1.30143
       H    10.26996    7.27048   -0.63607
       O    10.14334    7.96546    0.06751
      H1    10.40886    7.50170    0.86729
       H     5.00679   11.04529   -2.94728
       O     4.92121   10.90053   -3.87355
      H1     4.07783   10.43447   -4.06582
       H    11.35284    0.92192   -0.90026
       O    10.90268    1.26849   -0.10309
      H1    10.36581    2.01568   -0.46800
       H     6.27893    2.70998   -3.18919
       O     6.18881    3.26142   -3.96226
      H1     5.78394    4.03594   -3.56510
       H    12.53742    1.96308   -4.80022
       O    11.68712    1.47887   -4.84164
      H1    11.63456    0.90377   -4.06955
       H     7.40809    2.50470   -7.50856
       O     7.18314    3.24292   -8.09464
      H1     7.82858    3.93653   -7.87320
       H    10.17696    9.15141   -6.41936
       O    10.08941    9.47371   -7.35325
      H1     9.62716    8.80507   -7.92698
       H    12.54615    5.22653   -3.64913
       O    12.65737    5.50089   -4.57234
      H1    13.28715    6.24141   -4.43938
       H     8.13190    6.37101   -6.33438
       O     8.53311    5.71870   -6.91346
      H1     9.51585    5.67994   -6.76491
       H     8.61856    6.96043   -8.23556
       O     8.62784    7.80278   -8.66278
      H1     7.71312    8.13608   -8.46054
       H     6.49494    9.45694   -6.16164
       O     7.11263    9.92566   -5.57632
      H1     6.55504   10.34831   -4.94455
       H     8.87219    3.28970   -2.22898
       O     9.17089    3.03548   -1.37852
      H1     8.49195    3.42882   -0.79896
       H     5.00816    3.49840   -5.32021
       O     4.15388    3.30700   -5.80441
      H1     3.47134    3.08861   -5.12540
       H    10.15535   10.69677   -2.22164
       O     9.55330   10.17880   -1.64756
      H1    10.06565    9.47591   -1.11277
       H     1.38139    6.89763   -2.46744
       O     1.25956    6.31535   -1.67990
      H1     0.50829    6.70733   -1.26398
       H    10.64175    2.10354   -6.13100
       O    10.00785    2.55238   -6.72302
      H1    10.42085    3.35178   -6.99652
       H     5.49004    9.10263   -8.63852
       O     6.01848    8.61660   -7.95011
      H1     5.43511    7.92533   -7.70401
       H     6.29481    7.14789   -5.24497
       O     7.29578    7.12506   -5.04049
      H1     7.55754    8.02362   -5.03898
       H     3.50507    4.65379    0.62053
       O     4.18654    5.01859    0.01264
      H1     4.39147    5.91680    0.16761
       H     7.41014    7.08056   -2.19112
       O     7.40834    6.15835   -2.43472
      H1     7.37481    6.11880   -3.40998
       H    10.91539    8.33948    3.16657
       O    10.84981    7.50196    2.73685
      H1    11.75037    7.24359    2.51884
       H    11.00018   12.31044    0.40533
       O    10.07304   12.04762    0.47438
      H1     9.90707   11.33451   -0.16948
       H     6.73959   11.67309    1.86329
       O     6.02995   10.95911    1.72895
      H1     5.43536   11.34338    1.08486
       H     9.05638    0.98254   -3.05299
       O     8.28454    0.48161   -3.00575
      H1     8.34505   -0.12362   -2.22958
       H     9.25231    3.28665   -5.09353
       O     9.08857    3.59486   -4.19005
      H1     8.16191    3.29208   -4.14298
       H     5.10241    1.11665    1.60288
       O     4.80441    0.93824    0.72866
      H1     3.94138    1.41786    0.66010
       H     4.08284    6.05304   -8.31663
       O     4.03987    6.79633   -7.75102
      H1     3.26068    7.28335   -8.07390
       H     4.50311    7.17480    4.73165
       O     5.11150    7.59301    4.09399
      H1     5.73372    6.82683    3.85775
       H    10.30841    8.16404   -4.41414
       O    10.46372    9.04068   -4.81178
      H1    10.13708    9.75141   -4.31597
       H    13.95026    4.98037   -1.07832
       O    13.76543    5.12958   -0.17563
      H1    14.45186    4.63363    0.31468
       H     8.45485    4.47662    2.56561
       O     8.27564    4.72045    1.67355
      H1     7.43468    4.30041    1.42203
       H    10.67002    5.81147   -3.23255
       O    10.29042    6.61477   -2.85016
      H1     9.45800    6.31441   -2.52104

