156
frame 11 | Written by MDAnalysis XYZWriter (release 2.4.3)
       H    13.68775  -13.78416    3.59253
       O    13.05281  -13.64101    2.86470
      H1    12.43316  -14.40464    2.69657
       H     7.95038  -12.30151    6.76120
       O     8.18939  -13.11023    7.15864
      H1     7.45271  -13.52529    7.68897
       H    16.20442  -15.16729    0.34047
       O    16.56470  -14.47807   -0.27180
      H1    16.46355  -14.77725   -1.15668
       H    10.55307  -14.58584    1.24266
       O    11.04822  -15.18063    1.82382
      H1    11.63796  -15.74162    1.32010
       H    17.85589  -14.17783    0.53064
       O    18.67788  -14.00973    1.00805
      H1    18.48086  -14.07068    1.94647
       H    14.84328   -7.97150    3.76990
       O    14.18331   -7.30705    3.48441
      H1    14.59068   -6.65403    2.90336
       H    13.47481   -9.22114   -0.56684
       O    13.03727   -8.81215   -1.41757
      H1    12.99329   -9.58419   -2.04941
       H    17.33950  -10.85702    0.64748
       O    17.05886  -10.23454    1.35711
      H1    16.14423  -10.52417    1.45642
       H    13.48693  -13.25859    1.35339
       O    13.92929  -12.99682    0.49937
      H1    14.70621  -13.52604    0.50456
       H     8.92012  -14.43312    6.49855
       O     9.29639  -15.16733    5.96889
      H1     9.07065  -14.83528    5.08269
       H    17.28172  -11.06240    3.19430
       O    17.22151  -11.23729    4.17864
      H1    16.70629  -10.48253    4.55198
       H    18.34803  -13.25686    4.17360
       O    18.61237  -14.08794    3.78547
      H1    19.52211  -14.24640    4.03370
       H    14.97690  -13.25172    5.42426
       O    15.12642  -13.29591    4.45762
      H1    15.72989  -12.52837    4.23220
       H    12.64397   -8.74511    4.11087
       O    12.41327   -9.63079    4.39719
      H1    12.77663   -9.53003    5.31326
       H     6.76070  -11.31402    1.96068
       O     7.33331  -11.94458    1.50394
      H1     8.07592  -11.35815    1.26195
       H    13.99499  -11.07638    0.46414
       O    13.95267  -10.19881    0.82046
      H1    13.35960  -10.25886    1.53401
       H    18.17045  -18.13708    1.72774
       O    18.41064  -18.67097    2.50198
      H1    17.70972  -19.29838    2.70232
       H    14.59525  -12.16211    9.23668
       O    14.00557  -12.08712    9.98047
      H1    13.49582  -12.88123   10.03849
       H     7.36254  -15.59646    1.84227
       O     8.22202  -16.00425    1.76490
      H1     8.88473  -15.42072    2.15604
       H    11.78334  -12.55565    3.35552
       O    11.05625  -12.01557    3.68249
      H1    11.37666  -11.23482    4.18238
       H     9.40097   -9.77496   -0.62569
       O     9.30277  -10.76138   -0.43077
      H1     9.39787  -11.22755   -1.30865
       H    16.61352   -8.50232    4.88042
       O    15.81955   -8.99496    4.65434
      H1    15.44475   -9.24360    5.56314
       H    14.69750  -18.79346   -0.68602
       O    14.68676  -17.81002   -0.78058
      H1    15.13363  -17.47623    0.05913
       H    12.82973  -13.34781   -0.65943
       O    12.19313  -13.50617   -1.41409
      H1    12.12301  -14.47410   -1.59537
       H    13.50525   -8.59009    7.43479
       O    13.39513   -9.46486    7.03976
      H1    12.78094   -9.83485    7.66283
       H    11.65187   -5.98331    2.46290
       O    10.96873   -6.66247    2.27195
      H1    11.49115   -7.57510    2.20370
       H     7.97609  -10.42497    5.42338
       O     7.41748  -11.23680    5.22888
      H1     7.95558  -11.92355    4.79068
       H     8.37500  -13.28666    3.01483
       O     8.57310  -13.52105    3.90030
      H1     9.43405  -13.09693    4.01777
       H    18.44258  -10.89126    5.51784
       O    18.73173  -10.63859    6.38721
      H1    18.95549  -11.47728    6.82849
       H    14.22043  -13.93038    7.42318
       O    14.75268  -13.14358    7.15040
      H1    15.66026  -13.47027    7.19692
       H    12.36516  -16.01518    7.51381
       O    11.61353  -15.51449    7.74098
      H1    11.01349  -15.59191    6.97318
       H    16.87754  -16.06829    4.49810
       O    15.95457  -15.81827    4.17826
      H1    15.99271  -14.85831    4.07055
       H    11.93617  -14.30330    9.21940
       O    12.25630  -14.00559   10.08467
      H1    12.72267  -14.73955   10.59720
       H    11.26295  -16.17934   -3.19137
       O    11.89982  -16.01603   -2.49411
      H1    11.91676  -16.92823   -2.10016
       H    19.35810  -17.95078    5.50830
       O    18.51716  -17.63925    5.14128
      H1    18.55750  -18.00640    4.25957
       H    13.87361  -18.31458    5.42525
       O    14.32478  -18.44438    6.25170
      H1    13.65394  -18.61084    6.96587
       H    16.73069  -16.71761    1.09091
       O    15.93003  -16.32414    1.35844
      H1    15.89636  -16.35987    2.34741
       H    17.61974  -17.04326    8.56819
       O    16.97489  -16.31186    8.78519
      H1    17.13269  -15.97079    9.68940
       H    11.39157   -9.82126    0.87045
       O    11.36467   -9.33234    1.71250
      H1    11.02201  -10.05516    2.29209
       H    15.30971  -16.10190    8.28348
       O    14.56924  -16.04556    7.66056
      H1    14.93282  -16.71704    7.07210
       H    10.73508  -19.64818    5.42260
       O    10.14024  -18.99644    5.83704
      H1    10.57534  -18.74541    6.67519
       H    13.43687  -17.42123    2.77211
       O    13.75842  -17.52967    3.64635
      H1    14.38958  -16.85131    3.76935
       H    13.32688  -17.25873    0.33467
       O    12.75887  -17.09469    1.09072
      H1    11.90796  -17.64494    1.02507
       H    17.56728  -12.36451    8.67802
       O    16.90920  -11.90203    9.18798
      H1    16.55107  -11.19055    8.66568
       H     9.31971  -12.85176    0.35277
       O     9.64075  -13.74557    0.20945
      H1    10.32461  -13.60048   -0.49870
       H     9.88593  -18.66126    0.48253
       O    10.18777  -18.46599    1.36643
      H1     9.43180  -18.18877    1.80826
       H     9.10817  -17.27279    8.20953
       O     9.91481  -17.81991    8.35885
      H1    10.67143  -17.19953    8.46314
       H    12.60178  -12.00095   -2.51890
       O    12.80080  -11.11224   -2.82384
      H1    12.05162  -10.90993   -3.42830
       H    18.10949  -12.03165   -1.29703
       O    18.55569  -11.68974   -0.51402
      H1    18.66798  -12.50487    0.00441
       H     8.13278  -16.29901    6.36719
       O     7.45965  -16.83801    6.79707
      H1     7.22884  -17.57385    6.19812
       H     9.98900  -12.53201    7.17168
       O    10.75445  -11.93538    6.99732
      H1    10.67934  -11.89687    6.05049
       H    10.02237   -9.99615    9.30715
       O     9.70299   -9.79400    8.43018
      H1    10.24740  -10.39215    7.87515

