156
frame 3 | Written by MDAnalysis XYZWriter (release 2.4.3)
       H     4.26126   13.36307   17.23200
       O     3.56179   13.09473   17.83976
      H1     3.75161   13.59008   18.66801
       H     8.11353    5.69258   12.67654
       O     8.10230    6.56705   12.17320
      H1     7.24221    6.97977   12.37214
       H     9.27240   18.10851   11.58754
       O     9.30053   17.20090   11.21476
      H1     8.43525   16.81791   11.52194
       H     4.25894   11.27863   17.86294
       O     4.61840   10.36072   17.85917
      H1     5.42461   10.45239   18.42080
       H     6.01782   13.12102   15.18702
       O     6.96953   13.29900   15.33168
      H1     7.27221   12.55534   15.88726
       H    10.14093   13.71041   16.44625
       O     9.87240   13.49498   17.38392
      H1    10.14334   14.24952   17.95037
       H     3.77024   13.10128   14.56980
       O     4.56248   12.75506   14.20947
      H1     4.58376   12.97605   13.28752
       H     9.39542   14.97993    8.61427
       O     8.54223   14.60764    8.48960
      H1     8.71878   13.88537    7.90663
       H     0.86970   19.95245   12.19216
       O     1.62460   19.82475   12.77085
      H1     1.91709   18.89984   12.63364
       H     8.98445   12.10003   17.08496
       O     8.31596   11.45444   16.77708
      H1     8.67991   10.93549   16.05675
       H     9.68320    9.39106   13.02465
       O    10.22969    9.44479   12.23120
      H1    10.27345    8.58105   11.84701
       H     3.04567   16.82409   12.55042
       O     2.32344   16.85056   13.23342
      H1     1.55212   16.63839   12.64375
       H     5.16465   17.45783   11.47941
       O     4.80844   16.61325   11.75574
      H1     4.87883   16.04237   10.97796
       H     6.44645   15.69944   12.32454
       O     7.33748   15.91872   12.53364
      H1     7.76323   15.06005   12.56030
       H     3.37707   15.15021    6.87282
       O     3.92266   15.36108    7.62835
      H1     3.84528   16.32105    7.65242
       H     1.12544    7.74889    9.91531
       O     0.59027    7.64067   10.73433
      H1     0.69064    8.39321   11.23167
       H     1.96879   14.20712   18.00698
       O     1.08727   14.52550   18.04469
      H1     1.14243   15.47862   18.15895
       H    10.81382   14.94092   14.70058
       O    11.14796   14.07472   15.00734
      H1    11.84239   13.92175   14.33554
       H     3.32575   11.29389    7.99654
       O     2.40236   11.58357    8.19445
      H1     2.39148   11.73353    9.15316
       H     9.73883    8.69425   15.32711
       O     9.06774    9.26540   15.00956
      H1     8.19816    8.88252   15.29315
       H     1.92939   13.02668    5.63123
       O     2.08009   13.61219    6.37053
      H1     2.35256   13.02806    7.06244
       H     4.28173   19.09269   15.65629
       O     4.08874   19.66550   14.89047
      H1     3.27525   20.15598   15.06397
       H     9.70520   13.29012   13.61740
       O     8.79133   13.23408   13.17410
      H1     8.03366   13.03988   13.72289
       H     3.37283    9.45874   15.20055
       O     2.97700    9.13158   16.05657
      H1     3.54806    9.62784   16.66714
       H     5.51738   13.54911   10.92811
       O     5.12158   12.93481   11.58483
      H1     4.19511   12.86345   11.30577
       H     0.00312   12.74226   17.91224
       O    -0.37453   11.87495   17.77509
      H1    -1.15616   11.84451   18.29121
       H    -0.54814   12.87887   16.08335
       O    -0.34156   13.44787   15.30077
      H1    -0.69164   14.34611   15.40800
       H    -0.41132   16.34672   10.56287
       O     0.16992   16.27626   11.36900
      H1     0.03872   15.38693   11.73408
       H     4.16497   16.97515   15.46630
       O     4.86026   17.13776   16.14064
      H1     5.33030   16.32310   16.34168
       H     6.52046   14.46063   16.53168
       O     6.23303   15.02663   17.23873
      H1     6.53276   14.53467   18.03407
       H     1.51208   15.44120   10.00644
       O     2.06809   14.80550    9.55971
      H1     2.38819   15.18240    8.76453
       H     6.56924   12.02544   11.02540
       O     7.11608   11.46903   10.40411
      H1     8.02079   11.63988   10.48118
       H     0.65545   10.58941   12.83389
       O     1.24923   11.36940   12.69592
      H1     0.73617   12.16481   12.82058
       H    -1.13860   13.84666   12.78860
       O    -0.32096   13.84137   12.28964
      H1    -0.72283   13.70357   11.43353
       H     9.43347   12.47453   11.76559
       O     9.89075   12.02346   10.96273
      H1    10.15662   11.19770   11.33119
       H     5.02891   11.03667    5.96275
       O     4.99253   11.28027    6.90998
      H1     5.83468   10.85315    7.27737
       H     8.77358   17.33628   17.03041
       O     8.55133   16.90063   17.84837
      H1     7.76133   16.35280   17.63295
       H     7.21458   17.00360   13.99354
       O     7.20425   17.65864   14.72792
      H1     6.37977   17.49385   15.25399
       H     7.94106   10.76319    7.74320
       O     7.14559   10.25318    7.97699
      H1     6.99743   10.53560    8.87545
       H     6.57412   14.66537    9.26031
       O     5.75852   14.87538    9.75726
      H1     5.13629   15.00535    9.02996
       H     6.25344   12.65600    6.79562
       O     6.64445   13.42251    6.45924
      H1     5.95309   14.09483    6.57863
       H     4.12823    6.82099   11.00579
       O     4.54532    7.40749   10.38566
      H1     5.06351    7.88585   11.05816
       H     0.74925    9.34701   16.41246
       O    -0.03084    9.41635   16.99658
      H1    -0.07934   10.39374   17.25517
       H     7.58626    8.81955   18.53560
       O     7.40301    9.71413   18.73923
      H1     7.77187   10.23330   17.99219
       H    -0.12714    8.40923   13.68158
       O    -0.56977    9.17323   13.22764
      H1    -1.54038    8.96483   13.26645
       H     5.96669   19.42208   11.68344
       O     5.91829   19.16296   10.75509
      H1     5.07887   19.52781   10.45684
       H     5.57408    9.43886   12.66187
       O     6.09028    9.04107   11.94434
      H1     6.44021    9.78247   11.39905
       H     3.46494   10.11117   13.15263
       O     4.20017   10.02601   13.78543
      H1     4.51356   10.88496   14.08961
       H     2.11385   14.75425   14.62626
       O     2.47036   14.15385   15.26923
      H1     1.65408   13.71215   15.49390
       H     2.37086   13.29591   10.20476
       O     2.65751   12.52044   10.70800
      H1     2.04969   12.14978   11.40200
       H    10.11751   16.48311   12.99981
       O    10.70109   16.57510   13.74097
      H1    11.48761   17.10242   13.42413
       H     6.92633    7.53624   15.59866
       O     6.58032    8.41198   15.43728
      H1     5.83076    8.55209   16.01943

