156
frame 2 | Written by MDAnalysis XYZWriter (release 2.4.3)
       H   -14.93123   -5.75828   10.02260
       O   -15.87593   -6.01587   10.18879
      H1   -16.36393   -5.26374    9.84217
       H   -18.47052    0.11238   10.59607
       O   -19.39929    0.16197   10.88540
      H1   -19.35398    0.97210   11.39551
       H   -17.83100   -9.82912   11.65890
       O   -17.86538  -10.73149   12.02754
      H1   -18.74577  -10.98183   12.41223
       H   -11.75981   -7.16947   17.02687
       O   -12.64214   -7.35737   17.36663
      H1   -12.54572   -6.92185   18.25338
       H   -11.36285  -10.16965   17.91997
       O   -12.12661  -10.29081   18.41771
      H1   -12.44688   -9.37899   18.33912
       H   -13.79233    3.51672   12.64410
       O   -13.98660    2.51953   12.71267
      H1   -13.44532    2.28728   13.45389
       H   -17.11967   -4.79915   13.23553
       O   -16.40026   -4.34604   13.65898
      H1   -16.67898   -3.86402   14.45915
       H   -19.45823   -5.49914   12.11218
       O   -18.95535   -4.66923   12.42198
      H1   -19.53803   -3.92722   12.36122
       H   -13.30284    3.56428   17.01633
       O   -12.40353    3.76489   16.66042
      H1   -11.84556    3.36234   17.37031
       H   -14.60717   -0.27621   15.13207
       O   -13.65909   -0.48734   15.08884
      H1   -13.54454   -0.82319   14.20435
       H   -18.83588    4.97185   14.88563
       O   -18.31329    5.37876   14.21155
      H1   -17.50243    4.81511   14.24778
       H   -10.79669   -4.76321   16.37268
       O   -10.68253   -3.87417   16.06319
      H1    -9.80853   -3.86538   15.79045
       H   -16.58161   -2.82975   12.46249
       O   -16.89509   -1.96069   12.12955
      H1   -17.81608   -1.80557   12.42690
       H   -16.60192    2.60152   15.10923
       O   -15.78721    3.01534   14.71650
      H1   -15.42193    2.51785   14.02639
       H   -19.72252    1.79648   13.53550
       O   -19.46316    2.56165   12.93384
      H1   -18.52365    2.40270   12.84335
       H   -17.36022   -7.40734   10.94260
       O   -17.75585   -8.28174   10.88912
      H1   -18.69608   -8.12658   10.63900
       H   -16.86006   -9.60722   13.30727
       O   -16.57067   -9.04622   14.04513
      H1   -15.62129   -9.25702   14.24490
       H   -14.15337   -3.99490    9.44644
       O   -13.58985   -4.79758    9.25734
      H1   -13.98385   -5.02836    8.39483
       H   -17.94566   -6.12034   14.81528
       O   -18.91895   -6.00891   14.91403
      H1   -19.18619   -5.39305   14.19854
       H   -15.45288    1.24577   12.28024
       O   -16.04105    0.75562   12.78258
      H1   -16.01678   -0.10362   12.28626
       H   -16.90031    0.84476    9.30036
       O   -16.73489    0.29832   10.04872
      H1   -16.67978   -0.63050    9.75108
       H   -14.40264    1.14391   10.13826
       O   -13.92601    1.40894    9.34772
      H1   -13.94448    0.59746    8.77553
       H   -13.00936   -0.12013   19.07951
       O   -13.85619    0.28534   19.08320
      H1   -14.54584   -0.37417   19.27812
       H   -16.34507   -0.16890   14.26995
       O   -16.34904   -0.34247   15.22948
      H1   -16.50552   -1.27730   15.35901
       H   -15.80005   -2.44299   18.64013
       O   -16.51562   -2.08301   19.14355
      H1   -17.05909   -2.86213   19.37398
       H   -14.78780    3.28748   18.79986
       O   -14.72290    2.71867   18.06782
      H1   -14.22171    1.93023   18.41101
       H   -12.20837   -6.99024   11.51694
       O   -12.73061   -7.38796   12.24973
      H1   -13.06351   -6.64870   12.70220
       H   -10.16299   -1.12834   19.57571
       O   -10.86886   -0.42597   19.51386
      H1   -11.36156   -0.77889   18.77285
       H   -17.17620   -1.18946    7.99363
       O   -16.49091   -1.74522    8.36433
      H1   -15.66324   -1.24022    8.33990
       H   -13.92521   -2.06778   11.22191
       O   -14.51740   -2.13029   10.44895
      H1   -15.38002   -2.05012   10.88940
       H   -18.82740   -9.11681   17.04092
       O   -19.36369   -8.51744   17.58066
      H1   -19.68209   -9.14942   18.24736
       H   -15.56569   -6.62430   18.67180
       O   -16.44524   -6.75965   18.30878
      H1   -17.00728   -5.99295   18.54230
       H   -13.76616   -6.21317   16.58341
       O   -14.41569   -5.59860   16.25835
      H1   -15.16228   -6.12137   15.88122
       H   -20.01313    0.55898   17.16686
       O   -19.93157    0.27060   18.09142
      H1   -19.06006    0.57938   18.40070
       H   -16.65665   -7.76624   15.17694
       O   -16.54680   -6.86890   15.59257
      H1   -16.69784   -6.86446   16.58129
       H   -13.38742   -3.15308   13.28833
       O   -13.18239   -2.25776   12.98779
      H1   -12.29289   -2.32341   12.73479
       H   -12.78718   -1.44057   16.55059
       O   -12.33309   -1.91026   17.26245
      H1   -11.78532   -2.59383   16.79769
       H   -16.75964   -9.77902   17.40708
       O   -16.40783   -9.40322   18.20082
      H1   -16.51945   -8.47196   18.05193
       H   -15.55267   -3.22218   16.57510
       O   -16.35214   -3.05828   16.12490
      H1   -17.08838   -3.04784   16.69005
       H   -18.39884   -4.37726    9.66056
       O   -17.66648   -4.43287    9.03407
      H1   -17.51872   -3.50198    8.90462
       H    -9.80922   -6.60428   17.19508
       O   -10.05002   -6.72428   16.27485
      H1    -9.51264   -6.00146   15.90446
       H   -10.50101    0.79970   15.16403
       O    -9.57288    0.62295   15.14266
      H1    -9.37145    0.24113   16.00532
       H   -12.16096    1.41296   11.41671
       O   -11.41644    0.91179   11.78162
      H1   -11.47814    1.14615   12.69863
       H   -16.25083  -11.08528   19.23257
       O   -16.13466  -11.67047   20.03234
      H1   -16.23469  -12.58233   19.69639
       H   -15.99948    6.30047   15.21795
       O   -15.54806    5.62691   15.70726
      H1   -15.95050    4.79948   15.44019
       H   -17.21333  -11.26055   15.99053
       O   -17.90982  -10.58443   15.95476
      H1   -17.62234  -10.03673   15.16047
       H   -17.87146    3.13032   18.75676
       O   -17.34473    2.43608   18.32304
      H1   -16.36835    2.71176   18.09199
       H   -18.09134    2.11516   16.69968
       O   -18.03610    1.67230   15.81958
      H1   -17.52164    0.80400   15.89150
       H   -14.34203   -4.32209   17.44797
       O   -14.28441   -3.61593   18.13178
      H1   -13.70934   -2.93332   17.75083
       H   -13.93658   -4.78883   14.46561
       O   -13.77291   -4.87208   13.48178
      H1   -14.69763   -4.90578   13.08874
       H   -12.22091    2.43446   15.20170
       O   -12.06378    1.75320   14.56839
      H1   -12.50933    0.97209   14.91853
       H   -14.14346  -10.96409   13.58126
       O   -13.91862  -10.29200   14.22041
      H1   -13.03126  -10.00734   14.01731

