156
frame 1 | Written by MDAnalysis XYZWriter (release 2.4.3)
       H   -14.91242   -6.35110   10.31570
       O   -15.85989   -6.59702   10.13036
      H1   -16.19687   -5.74420    9.81287
       H   -14.25823  -12.35939   10.35692
       O   -13.77482  -12.18705    9.54969
      H1   -14.01186  -11.27909    9.32693
       H   -16.56391  -11.22196   -1.18077
       O   -16.40218  -10.51613   -1.81254
      H1   -16.44487  -10.94657   -2.67538
       H   -17.41496  -10.51785   11.74062
       O   -17.31050  -11.30208   12.33638
      H1   -18.24136  -11.65391   12.35073
       H   -16.49266   -6.59174    1.25557
       O   -15.95502   -7.27356    0.76349
      H1   -16.58611   -7.87035    0.32764
       H   -19.87923   -6.16005   11.63176
       O   -19.25078   -5.62123   12.05632
      H1   -19.64614   -4.74808   11.94555
       H   -16.06043   -8.70279    3.89264
       O   -15.44265   -8.77257    3.11213
      H1   -15.89487   -8.19844    2.45504
       H   -14.54924   -8.07821    7.58437
       O   -15.43917   -8.22731    7.98138
      H1   -15.62183   -7.54921    8.62500
       H   -18.83256  -11.25448    2.42266
       O   -19.34630  -11.06115    1.61787
      H1   -19.30937  -10.07479    1.39897
       H    -9.51691   -7.90175    3.07864
       O   -10.08085   -8.04974    3.86603
      H1   -10.71122   -8.73393    3.51610
       H   -17.06177   -7.91267   10.67760
       O   -17.43322   -8.75195   10.97738
      H1   -18.36312   -8.79790   10.69986
       H   -18.43374  -15.75716    5.04800
       O   -19.20139  -15.13972    5.23325
      H1   -19.91971  -15.68380    4.96094
       H   -12.47711   -9.93713   10.62536
       O   -11.78493  -10.58564   10.72414
      H1   -12.17041  -11.34244   10.21062
       H   -17.16365   -8.39716   12.66922
       O   -16.89057   -8.04919   13.52782
      H1   -15.97910   -8.37324   13.69581
       H   -17.52250   -9.38614    6.00061
       O   -17.25010   -9.87408    6.76623
      H1   -16.67246   -9.25723    7.24471
       H   -18.99211  -13.36539    4.61097
       O   -18.57917  -12.58111    4.20859
      H1   -17.60332  -12.76921    4.16728
       H   -18.80048  -16.23333    9.77901
       O   -18.42709  -15.74360   10.55638
      H1   -18.44374  -14.79218   10.22383
       H   -13.49485   -4.31551    9.83380
       O   -13.29818   -5.23692    9.87462
      H1   -13.42013   -5.50149    8.98676
       H   -15.42969  -13.15623    8.64733
       O   -16.22505  -13.38803    8.17560
      H1   -16.20679  -14.31435    7.93612
       H   -14.22150  -12.60244   12.81061
       O   -14.49560  -11.81135   12.37444
      H1   -15.46448  -11.80861   12.32631
       H   -14.46597   -3.66600    3.44325
       O   -14.68345   -3.06251    2.71614
      H1   -14.37561   -3.50548    1.92304
       H   -19.40073  -12.62144    6.60147
       O   -19.65781  -11.86098    7.10988
      H1   -18.80570  -11.42195    7.35825
       H   -11.59522  -10.08529    5.30174
       O   -11.87928  -10.08237    4.40405
      H1   -11.33181  -10.70661    3.91288
       H   -17.92080  -11.87675    0.78570
       O   -17.06973  -12.22776    0.41061
      H1   -16.48048  -12.36484    1.15305
       H   -11.17650  -13.37484    5.73628
       O   -10.33634  -13.05961    5.39588
      H1    -9.71439  -13.76917    5.35845
       H   -18.96969   -8.99088    4.68907
       O   -18.15094   -8.53862    4.41089
      H1   -18.41818   -7.72388    3.97436
       H   -10.02243  -11.46514    6.29091
       O   -10.02301  -10.57533    6.66307
      H1    -9.39659  -10.02000    6.17500
       H   -13.68872   -5.41810    5.02833
       O   -14.21735   -4.64444    5.05622
      H1   -14.01764   -4.12903    5.80468
       H   -14.66458   -8.85486   11.08149
       O   -14.10714   -8.94392   10.33892
      H1   -14.66420   -8.76052    9.61559
       H   -17.49935   -9.29663   -1.01106
       O   -18.19589   -8.74316   -0.59323
      H1   -17.99620   -7.92357   -1.05505
       H   -14.49963  -10.11197    2.47340
       O   -13.96690  -10.90912    2.21992
      H1   -13.03234  -10.62403    2.40025
       H   -11.97174   -8.20906    6.97029
       O   -12.81483   -8.21689    6.57138
      H1   -12.78236   -7.61193    5.80077
       H   -17.75451  -14.56105   -1.51951
       O   -17.43332  -14.61011   -0.61642
      H1   -17.25551  -13.68895   -0.41203
       H   -16.86210   -4.29849    4.47365
       O   -17.02444   -4.09015    3.51996
      H1   -16.24660   -3.68392    3.12683
       H   -17.38123   -0.29859    5.07610
       O   -17.50374   -1.26251    5.21383
      H1   -17.06153   -1.81552    4.54367
       H   -14.80581  -11.76985    3.48336
       O   -15.28065  -12.43856    4.01870
      H1   -15.29130  -12.11065    4.93154
       H   -17.43233  -13.17307    9.35886
       O   -18.12921  -13.01630   10.01431
      H1   -17.78642  -12.54340   10.79513
       H   -18.88975  -17.63447    7.94547
       O   -19.08515  -16.69789    8.08834
      H1   -19.64594  -16.45477    7.36177
       H   -15.86837  -16.51967    7.71074
       O   -16.53719  -16.04774    7.19548
      H1   -17.40014  -16.11804    7.66962
       H   -17.55768   -4.34703    9.75924
       O   -16.88825   -4.25241    9.04812
      H1   -16.97736   -3.30782    8.66825
       H   -11.94659   -7.14015    3.69474
       O   -12.67137   -6.82314    4.30136
      H1   -13.50982   -7.07275    3.82539
       H   -17.75130  -17.80054    5.02624
       O   -17.31386  -16.98385    4.86826
      H1   -16.90229  -16.65878    5.71746
       H   -18.80673   -5.73674    1.43383
       O   -18.36547   -6.07689    2.17991
      H1   -17.93140   -5.26052    2.63113
       H   -13.02484  -12.86801    7.09060
       O   -12.78922  -13.77992    6.80794
      H1   -13.48974  -14.17973    6.28563
       H   -15.61057  -10.86248    6.70559
       O   -14.78465  -11.17104    6.37171
      H1   -14.35941  -10.37342    5.98582
       H   -15.16532  -14.08489    4.71052
       O   -14.61609  -14.79684    5.12683
      H1   -15.16506  -15.11777    5.83858
       H    -9.64073   -8.34954    9.15952
       O   -10.54424   -7.98262    9.12072
      H1   -10.41347   -7.41813    8.32246
       H   -15.92374   -5.11325    5.85346
       O   -16.79817   -4.89278    6.17825
      H1   -16.75119   -4.89594    7.16766
       H   -11.26320   -5.28711    7.01273
       O   -12.13859   -4.85679    7.23218
      H1   -11.89874   -4.22066    7.91492
       H   -18.35887   -5.60930    6.57334
       O   -19.27276   -5.89444    6.68631
      H1   -19.62687   -6.11993    5.82952
       H   -13.84343   -6.92034    0.82621
       O   -12.94790   -6.64156    1.01822
      H1   -12.55539   -7.20614    0.31003
       H   -14.46694  -10.26187   13.02489
       O   -14.51196   -9.43019   13.56316
      H1   -13.74430   -8.79206   13.55329

