156
frame 1 | Written by MDAnalysis XYZWriter (release 2.4.3)
       H   -13.60949    0.71483    5.64327
       O   -14.34549    0.42071    5.11280
      H1   -15.16562    0.83999    5.29483
       H    -6.80248   -5.30394    5.59838
       O    -7.77618   -5.25442    5.71983
      H1    -8.10351   -4.98426    4.87972
       H    -9.68960   -1.54531    2.34684
       O    -8.68650   -1.64795    2.28572
      H1    -8.51554   -0.91400    2.87431
       H    -7.56658    3.85326    6.96732
       O    -7.02916    4.20625    6.25310
      H1    -7.52627    3.89285    5.53674
       H   -10.48648    6.40105    4.93345
       O    -9.63900    6.00883    5.19750
      H1    -9.57004    6.32861    6.10493
       H   -12.07773    4.72296    7.59614
       O   -12.11588    5.44407    8.26559
      H1   -12.79025    5.16925    8.87385
       H   -11.84392   -3.53743   -1.18657
       O   -11.44966   -2.63162   -1.16173
      H1   -11.56276   -2.44116   -0.22428
       H    -9.86178   -4.49237    2.55134
       O    -9.30411   -4.11729    3.26168
      H1    -8.93043   -3.30601    2.94032
       H   -11.42336    1.06781    2.65310
       O   -11.73926    1.71471    2.01300
      H1   -11.09533    1.68301    1.28050
       H   -14.03574   -0.13170    3.35523
       O   -13.92354   -0.51560    2.43661
      H1   -14.40106   -1.36400    2.48554
       H   -11.30578   -1.00917    4.50931
       O   -11.14647   -0.05409    4.46286
      H1   -10.19848   -0.00840    4.42138
       H   -14.93802   -0.00554   -0.12774
       O   -15.35168    0.51563    0.50603
      H1   -14.87549    0.07673    1.23171
       H   -10.38531   -3.26196    4.49635
       O   -11.04905   -2.83737    4.94717
      H1   -11.44561   -3.64347    5.33713
       H    -8.39342   -3.27639    6.03289
       O    -8.87050   -2.62739    6.54234
      H1    -9.78540   -2.63283    6.26484
       H    -4.58688    2.94154    0.51363
       O    -4.60741    2.30220    1.23470
      H1    -4.88831    1.57136    0.72452
       H   -15.26066    1.03967    9.13109
       O   -14.34810    1.31803    8.85096
      H1   -13.85279    0.50360    8.68421
       H   -14.46597   -3.66600    3.44325
       O   -14.68345   -3.06251    2.71614
      H1   -14.37561   -3.50548    1.92304
       H    -4.73907   -0.92710    7.23262
       O    -5.58280   -1.29417    6.96365
      H1    -6.21733   -0.57005    7.18364
       H    -7.67959    2.89232    2.53092
       O    -7.35065    2.21806    1.94050
      H1    -6.40485    2.33007    1.90329
       H    -8.83702    3.35764    8.59621
       O    -8.18620    2.81693    8.16534
      H1    -7.54357    2.61417    8.81179
       H   -13.20844    2.59844    1.50355
       O   -14.07773    2.72276    1.07285
      H1   -14.28216    1.78380    0.88144
       H   -13.68872   -5.41810    5.02833
       O   -14.21735   -4.64444    5.05622
      H1   -14.01764   -4.12903    5.80468
       H   -10.84987    0.82120    5.97569
       O   -10.56196    1.42433    6.63639
      H1   -11.32926    2.03529    6.75929
       H   -11.58105   -1.32769    8.41371
       O   -12.08742   -0.49445    8.22650
      H1   -11.43307    0.19234    8.19369
       H    -4.79223    0.20034   -0.89312
       O    -5.25825   -0.00134   -0.08569
      H1    -6.07978   -0.43252   -0.46218
       H    -6.77443    0.93126   -1.76740
       O    -7.26314    1.77611   -1.67867
      H1    -7.43810    1.83736   -0.75953
       H   -10.46900    1.81412   -1.30202
       O   -11.23730    2.02584   -1.83706
      H1   -10.85845    2.49019   -2.55632
       H    -9.19247   -6.21499    6.79772
       O   -10.08397   -6.56224    6.65215
      H1   -10.02426   -6.75346    5.73821
       H    -8.11568   -1.90819    9.61637
       O    -7.87695   -2.86308    9.53016
      H1    -7.05740   -3.01479    9.09972
       H    -8.32826    0.18872    5.17911
       O    -8.51351    0.21739    4.23454
      H1    -8.00876    1.05981    4.03575
       H   -11.51566    5.44743    2.70392
       O   -11.00959    4.91209    2.07396
      H1   -11.24028    4.03224    2.40906
       H   -11.48101   -2.74791    1.68554
       O   -11.41404   -1.79401    1.71060
      H1   -12.31612   -1.49808    1.84917
       H   -11.59402   -5.48093    1.23948
       O   -10.95465   -4.76810    1.28697
      H1   -10.34492   -5.03207    0.54561
       H    -7.60265   -2.21882   -0.79693
       O    -7.62471   -1.53471   -0.11763
      H1    -7.84181   -1.90905    0.75327
       H    -4.57876   -1.43181    5.22148
       O    -3.83839   -1.02977    4.70379
      H1    -3.05137   -1.23520    5.26872
       H    -5.76890   -4.59270    2.03910
       O    -4.96090   -4.26669    2.43318
      H1    -4.88788   -3.38537    2.09778
       H   -13.50943    2.35796    7.32090
       O   -12.89403    2.84988    6.74171
      H1   -13.38127    3.20778    5.96698
       H   -11.50724    4.35031   -0.57574
       O   -11.32845    5.09737   -1.14756
      H1   -12.06893    5.35127   -1.62927
       H    -8.54132    0.44995    7.40804
       O    -7.87438   -0.08403    6.93938
      H1    -8.19230   -0.99529    6.99787
       H   -15.17247    4.51254    5.53061
       O   -14.51665    4.23200    4.86346
      H1   -15.10229    4.23236    4.06075
       H    -9.00206    4.29915    4.25487
       O    -8.76747    3.43160    3.85936
      H1    -9.57539    2.93521    4.04559
       H   -12.39031    0.41184   -1.62295
       O   -12.99911   -0.30434   -1.59129
      H1   -12.40534   -1.11384   -1.49124
       H    -5.69225   -2.80703    7.82710
       O    -5.72996   -3.70751    8.25762
      H1    -5.92486   -4.31795    7.55041
       H   -11.27232    0.65055   10.95296
       O   -10.44167    0.90936   11.41427
      H1   -10.82486    0.93957   12.30206
       H    -9.78395   -2.63922   -1.71001
       O    -8.99981   -3.14443   -2.04561
      H1    -9.04622   -4.09688   -1.77635
       H    -4.46715   -1.57107    2.68141
       O    -4.18363   -1.74768    1.68234
      H1    -4.73263   -1.18560    1.09949
       H    -9.07762   -0.03417   10.60509
       O    -8.41634   -0.22785    9.92541
      H1    -7.59415    0.11233   10.19259
       H   -11.26320   -5.28711    7.01273
       O   -12.13859   -4.85679    7.23218
      H1   -11.89874   -4.22066    7.91492
       H   -14.24573   -1.54989    5.92391
       O   -14.23345   -2.00632    6.81084
      H1   -13.38267   -1.90768    7.24840
       H    -9.51247    4.99537    1.07644
       O    -8.72368    5.32784    0.63140
      H1    -8.92309    5.39773   -0.28483
       H    -9.38392    0.07860    0.49760
       O    -9.51369    1.03969    0.45956
      H1    -8.74237    1.35206    1.01488
       H   -10.90676   -2.71021    9.65985
       O   -10.80779   -2.89140    8.72719
      H1    -9.85321   -2.94127    8.56110

