156
frame 2 | Written by MDAnalysis XYZWriter (release 2.4.3)
       H    -0.71873    9.81902    7.93916
       O    -1.67363    9.78370    8.13940
      H1    -1.96120    8.92697    7.90167
       H    -1.21098   15.31251   -2.61605
       O    -1.88382   15.18381   -1.93549
      H1    -2.41604   15.99540   -1.93207
       H     1.26357   10.23668   -2.06300
       O     1.70408    9.37291   -2.22049
      H1     2.29088    9.32153   -1.48350
       H    -2.31799   13.15381    3.52280
       O    -2.20471   14.09849    3.31726
      H1    -3.09107   14.35451    3.05947
       H     0.98800    4.24092    3.22869
       O     0.96290    5.14567    3.49591
      H1     1.05773    5.74011    2.71278
       H     0.24051    6.75365    5.81787
       O    -0.07151    6.24108    6.61197
      H1     0.69500    6.25898    7.20413
       H     4.27298    5.50188    1.22452
       O     4.45230    4.61800    1.06714
      H1     3.65033    4.10643    1.06174
       H     6.53351   10.34551    2.71839
       O     7.11504    9.69358    2.20376
      H1     6.49783    9.50378    1.46673
       H    -3.54753    9.60931    0.29694
       O    -3.83725    8.69815    0.12183
      H1    -4.01607    8.70549   -0.83511
       H    -3.05181   16.35746    1.82200
       O    -2.22351   16.88863    1.84645
      H1    -2.27623   17.30537    2.72156
       H     3.67638    5.37379    5.20022
       O     3.04086    6.02431    4.82893
      H1     2.31429    5.52743    4.39723
       H     0.55632   12.79837   -1.09560
       O     1.11222   12.07726   -1.47133
      H1     1.94346   12.50419   -1.68220
       H     0.63414    7.51306    1.63701
       O     1.48692    7.19066    1.84926
      H1     1.95058    7.93073    2.30104
       H     1.23907    9.52328    6.99309
       O     1.18640    9.54790    7.92856
      H1     1.89864   10.14770    8.22675
       H     2.68478   14.86086    6.91022
       O     3.21860   15.44779    7.41807
      H1     2.81676   16.33957    7.33316
       H     2.55677   16.54325   -1.08046
       O     2.57339   16.75199   -1.99661
      H1     2.41974   17.68395   -1.99171
       H     0.31397   18.56837    4.07054
       O     0.66419   17.70635    4.07421
      H1     1.64158   17.73266    3.97457
       H     4.02943   14.51964    0.47625
       O     4.05927   15.32485   -0.09303
      H1     4.27822   16.07347    0.53614
       H    -4.43481    9.08054    1.66064
       O    -4.49215    9.36101    2.54808
      H1    -4.82147   10.27148    2.57881
       H    -2.41114   11.02560   -2.13221
       O    -1.85905   10.47626   -2.68567
      H1    -2.50781   10.27592   -3.35409
       H     2.67945    7.28120    0.08218
       O     3.17047    7.96264   -0.43961
      H1     3.28454    7.53093   -1.29292
       H     4.25521   11.38406    7.94259
       O     3.29153   11.46958    7.99640
      H1     3.19241   11.72444    8.91671
       H     1.83278   13.13997    5.65506
       O     1.77228   13.26340    6.59799
      H1     2.25526   12.51052    6.94843
       H    -0.59477   15.15417    2.68829
       O     0.24128   15.19272    2.25916
      H1     0.61483   16.06428    2.61484
       H    -0.54457   13.96917    0.98740
       O    -0.77895   13.49431    0.18682
      H1    -1.30766   14.11965   -0.35253
       H     4.91101    8.43057   -0.16477
       O     5.78752    8.77732   -0.12576
      H1     5.92770    9.21679   -0.97727
       H    -0.86723    5.67062    3.85066
       O    -1.79252    5.96232    3.90954
      H1    -2.25123    5.18855    4.29871
       H     2.67752   12.11240   -5.06146
       O     3.27646   11.42744   -4.72893
      H1     2.67578   10.94147   -4.16745
       H     3.72315    8.54719    2.55532
       O     3.08527    9.22416    2.90431
      H1     2.81144    9.69699    2.11308
       H    -5.46717   12.04539    3.65030
       O    -4.99035   12.00178    2.80873
      H1    -5.59288   12.37417    2.14036
       H    -0.81874   16.93606    0.52949
       O    -0.30432   17.32211   -0.22565
      H1    -0.39048   16.59969   -0.81284
       H    -1.44827   12.85154    7.49614
       O    -0.74362   13.25538    8.06736
      H1     0.09366   13.05301    7.65863
       H    -1.92557    7.99233    3.96241
       O    -2.06281    8.89818    3.63562
      H1    -2.98212    8.87325    3.22663
       H     5.39229   15.18639    2.83237
       O     6.24359   14.80369    3.16462
      H1     6.14510   14.71135    4.11064
       H    -2.11021   11.77494    5.20805
       O    -1.57740   11.66006    4.42029
      H1    -1.76566   10.69607    4.20417
       H     4.80524   11.79248    3.05839
       O     5.01888   11.11837    3.73992
      H1     4.32071   10.45948    3.72031
       H    -2.87951   11.62289    1.93916
       O    -2.31985   11.18548    1.25378
      H1    -1.90869   11.97780    0.87909
       H    -1.55220    8.60851    1.19566
       O    -1.16746    7.74068    0.95021
      H1    -0.93871    7.88907    0.02289
       H     1.60324   11.50574    2.04293
       O     2.03356   11.27812    1.23733
      H1     1.43213   11.49941    0.47966
       H     6.13101   11.32041    5.37207
       O     6.13664   11.46019    6.31571
      H1     6.98639   11.05221    6.64292
       H     5.07397   18.21235    1.98275
       O     4.36569   17.54130    2.08198
      H1     3.54435   17.99558    1.81423
       H     5.25427   13.35297    5.64355
       O     5.55835   14.22095    5.86920
      H1     4.79023   14.67509    6.28335
       H    -2.70168   11.51493    7.20157
       O    -3.08804   12.22895    6.62343
      H1    -3.99576   11.91393    6.48617
       H     0.38676   12.37133    3.97204
       O     1.20548   12.86414    3.78616
      H1     1.02266   13.64455    3.22316
       H     2.29271    9.23381    4.79035
       O     2.02913    8.62684    5.48128
      H1     2.36031    7.74292    5.25988
       H     7.27090   12.59048    1.40304
       O     6.83025   12.37721    0.60214
      H1     7.34811   12.84275   -0.00886
       H     0.11070   12.64320   -4.25947
       O    -0.47595   11.94609   -4.47651
      H1    -0.73907   11.54305   -3.66155
       H     3.56333   14.22933   -1.56079
       O     3.39854   13.54167   -2.22854
      H1     4.16587   12.95629   -2.24789
       H     4.75705    6.82859    3.38755
       O     4.84296    7.22159    2.52158
      H1     5.79752    7.47303    2.39000
       H     0.26204    8.56798   -2.12343
       O    -0.50421    8.01623   -1.97868
      H1    -1.24660    8.55848   -2.15348
       H    -4.47112   15.34100    5.40079
       O    -3.47766   15.38673    5.48027
      H1    -3.08510   14.57175    5.04483
       H     5.19282   12.71657    1.07288
       O     4.33944   12.86521    1.53106
      H1     3.61898   12.30669    1.20844

