156
frame 11 | Written by MDAnalysis XYZWriter (release 2.4.3)
       H     7.66323   10.16133  -11.91529
       O     8.65145   10.11658  -11.64251
      H1     8.71779   10.76070  -10.90793
       H    15.86570    8.41740   -5.83569
       O    15.95158    9.23752   -6.40078
      H1    15.12775    9.74502   -6.22721
       H     8.73312   14.73280  -10.37300
       O     8.02043   14.21256  -10.81617
      H1     8.46648   13.55582  -11.41559
       H    16.70271   13.69267   -4.94720
       O    16.13969   14.39185   -4.54975
      H1    15.55945   13.97503   -3.89947
       H    17.46378   16.71667   -7.04575
       O    18.18272   17.16130   -6.53880
      H1    18.45488   16.58531   -5.81522
       H     7.13949   10.35454   -2.32348
       O     6.34915    9.80681   -2.13788
      H1     5.77141    9.80954   -2.92242
       H    14.90401   11.42887   -2.98198
       O    14.65077   12.31663   -3.23268
      H1    13.72813   12.21652   -3.60624
       H    14.19755   13.44342   -9.49284
       O    14.59725   14.29215   -9.70622
      H1    13.82291   14.80940   -9.99022
       H    15.31354   13.31650  -10.81324
       O    15.70961   12.69963  -11.45819
      H1    16.62605   12.65625  -11.14249
       H    15.23898    7.90154   -8.01411
       O    14.39622    8.00580   -8.46856
      H1    13.94811    8.70755   -8.00024
       H    15.91322   16.99648   -9.41287
       O    15.91974   16.54069   -8.54998
      H1    15.44521   15.73502   -8.83915
       H    10.27380   13.40193   -6.78471
       O    10.72360   14.22941   -6.93092
      H1    11.02508   14.67341   -6.14154
       H     7.68950   14.50140   -5.06877
       O     8.34983   14.38383   -4.37317
      H1     7.82269   14.06260   -3.61782
       H    14.33491   17.74344   -0.82246
       O    15.18310   18.03192   -1.28183
      H1    15.12730   17.70467   -2.24012
       H    12.38123    8.87501   -4.56043
       O    11.98875    9.01909   -3.70932
      H1    11.02813    8.97356   -3.86883
       H    10.34913   11.72806   -4.47378
       O     9.42708   11.83119   -4.56723
      H1     9.24226   12.81481   -4.45954
       H    10.83447   13.72303   -9.01604
       O    10.87289   13.37702   -9.95181
      H1    10.67642   12.42550   -9.90594
       H    12.84669   11.11698   -9.80949
       O    13.72043   11.44173   -9.63386
      H1    13.67313   11.64130   -8.72991
       H    13.07001   18.34417   -8.65760
       O    13.10840   18.87310   -9.50783
      H1    12.58213   18.41294  -10.13774
       H     8.41440   17.39434  -10.83494
       O     7.96176   18.09554  -11.33103
      H1     8.66468   18.75273  -11.41057
       H     7.68164   19.79632   -4.21825
       O     7.28783   19.25808   -3.53445
      H1     6.97501   19.76910   -2.82170
       H    11.10256   18.42740   -3.91619
       O    11.10530   18.21042   -4.88455
      H1    11.76483   18.88838   -5.20929
       H     5.65284   16.21099   -8.88564
       O     6.02799   16.27434   -9.78733
      H1     6.70909   15.59939  -10.06404
       H    12.04831   12.08609   -3.27445
       O    12.06315   11.71578   -4.17725
      H1    12.07529   10.73308   -4.06140
       H     4.21289   16.71430   -7.38035
       O     5.07022   16.45664   -7.18412
      H1     5.52951   17.28581   -6.93994
       H     9.93652   15.21748   -0.12249
       O    10.24078   14.82414   -0.96291
      H1     9.88153   13.94803   -0.83175
       H    10.49092   10.41712   -8.83099
       O    10.96817   10.58027   -9.67019
      H1    10.90569    9.68870  -10.09900
       H    14.01025   13.40457   -7.01760
       O    13.33863   12.71880   -7.04709
      H1    12.55040   13.24623   -7.24120
       H    10.27597   16.39852   -9.11491
       O     9.30695   16.18626   -9.23600
      H1     8.88784   16.65556   -8.47083
       H     5.87372   14.94284   -6.44505
       O     6.42592   14.17363   -6.09235
      H1     5.72655   13.46889   -5.98567
       H    12.82494   14.17080    0.49558
       O    13.17921   13.25426    0.25432
      H1    13.20404   13.15055   -0.71112
       H     9.90314    8.81773   -6.18170
       O    10.45939    8.70133   -6.97441
      H1     9.81420    8.34500   -7.63888
       H    12.14634   12.52350  -12.92224
       O    11.71560   13.38979  -12.99036
      H1    12.09275   13.93561  -12.32453
       H     8.51220   16.39048   -3.06952
       O     8.16102   16.84222   -2.28666
      H1     7.85660   17.72813   -2.73238
       H    10.83614   16.66987   -2.23023
       O    10.73877   17.62944   -2.28254
      H1     9.77499   17.60972   -2.34174
       H    11.88685   14.49810   -3.51391
       O    12.31722   14.16339   -2.65553
      H1    11.59724   14.32711   -2.04746
       H     7.08820    9.76853   -6.87315
       O     7.23530    9.98593   -5.96302
      H1     6.45754   10.48101   -5.61058
       H     8.24955   11.90283   -8.62241
       O     8.04341   11.75136   -9.58096
      H1     7.78313   12.66672   -9.92420
       H     8.94575   11.40501   -3.01892
       O     8.52999   11.47620   -2.09983
      H1     9.27335   11.29127   -1.51768
       H    14.97982   15.14184   -5.71932
       O    14.30272   15.34429   -6.39835
      H1    14.77865   15.98846   -6.90869
       H    12.78562   10.60478   -6.36649
       O    13.09913    9.68129   -6.60138
      H1    12.28193    9.25743   -6.84490
       H     9.97806   15.21023   -4.80479
       O    10.90100   15.43933   -4.65351
      H1    11.09920   16.40981   -4.82654
       H    13.32889   18.94883   -5.88356
       O    13.99896   18.22033   -5.85474
      H1    13.55722   17.44571   -6.24859
       H     6.44915   19.33966   -7.55885
       O     6.47449   18.78222   -6.74772
      H1     6.13005   19.32678   -6.02843
       H     9.49670   18.45780   -6.23537
       O     9.12221   18.25823   -7.10077
      H1     8.28502   18.69956   -7.11821
       H     8.07756   13.17152   -6.76491
       O     8.51304   12.31494   -7.09670
      H1     8.54568   11.75618   -6.30349
       H    11.74178   14.90290  -10.46653
       O    12.18198   15.72732  -10.24497
      H1    12.32960   16.34464  -10.95217
       H     7.19731   14.96874   -1.58203
       O     7.15781   14.13229   -2.03657
      H1     7.65075   13.56155   -1.42329
       H     9.07424    8.29640   -3.65479
       O     9.39258    8.95041   -4.37585
      H1     8.61319    9.37616   -4.76569
       H    15.13276   17.33939   -4.69350
       O    15.71451   17.07392   -3.94761
      H1    15.96004   16.10980   -4.08647
       H    17.84282   11.99494   -6.14435
       O    17.75004   12.94343   -6.16872
      H1    18.07743   13.24987   -7.04541
       H    12.07697   16.27976   -7.22095
       O    11.77157   17.16319   -7.51307
      H1    10.84570   17.03830   -7.28658

