156
frame 9 | Written by MDAnalysis XYZWriter (release 2.4.3)
       H     4.69938   12.07787   18.79711
       O     4.31364   12.46713   17.97781
      H1     5.08861   12.60767   17.42724
       H     3.87120   10.72498   17.45555
       O     3.88969    9.76043   17.33690
      H1     4.70830    9.39456   16.99113
       H     5.74275   12.69281   14.86537
       O     6.16398   12.05232   15.48672
      H1     5.85152   11.16572   15.15421
       H     2.20976   15.97693   15.86666
       O     1.79391   15.64274   16.66058
      H1     2.45614   15.41279   17.26449
       H     5.72552    6.08741   17.73506
       O     4.82129    6.49430   17.54487
      H1     4.63357    6.16428   16.67515
       H    -0.05049    3.47044   13.93001
       O    -0.40132    3.49743   14.81448
      H1     0.18011    2.84500   15.25566
       H     7.65152   11.52255   18.23222
       O     7.45916   10.59478   18.32657
      H1     8.22563   10.06110   18.51426
       H    -4.02966    2.56974   17.85116
       O    -3.50252    3.22464   18.29282
      H1    -3.22741    3.83742   17.56831
       H     3.57252    5.99982   18.63444
       O     2.79209    5.63766   19.12785
      H1     2.19708    6.43515   19.17867
       H     3.17055    6.02387   13.91763
       O     3.77859    6.80334   13.89637
      H1     3.39304    7.49128   14.44608
       H    -0.62948   10.46324   18.59552
       O    -0.61925   11.42917   18.55808
      H1    -0.69626   11.57499   17.59220
       H     1.43941    4.78296   14.52156
       O     2.21225    4.46319   14.06484
      H1     2.63052    3.84787   14.69123
       H    -4.19902   13.45586   19.38402
       O    -4.15422   12.95457   18.54978
      H1    -3.93640   12.03837   18.88884
       H     0.27141   15.22808   19.48795
       O    -0.09950   15.74317   18.77092
      H1     0.57479   15.98635   18.11683
       H     2.13158    8.50519   19.42750
       O     1.85121    8.17014   18.58566
      H1     2.44128    8.66466   17.98751
       H     0.82282    1.12587   16.72968
       O     1.10360    2.05338   16.62173
      H1     0.58583    2.61382   17.18322
       H    -6.79530   10.39230   17.46376
       O    -7.07314    9.59310   17.97097
      H1    -6.84600    9.90164   18.88525
       H     3.94629   14.30496   18.71117
       O     3.71015   15.26345   18.69625
      H1     3.73931   15.50583   19.66061
       H     7.08141    7.35699   16.06537
       O     7.55607    6.60994   15.72786
      H1     6.94019    5.96270   15.34373
       H     0.55731   10.31450   11.26621
       O    -0.07279   11.03750   11.38340
      H1    -0.44429   11.18375   10.52164
       H     0.01345    8.38725   18.79150
       O    -0.86191    8.78616   18.95080
      H1    -1.08988    8.78509   19.91763
       H     5.34236    6.93000   12.99559
       O     6.06676    6.73847   12.37175
      H1     6.76572    7.41490   12.46461
       H    -1.64907   10.29786   12.25105
       O    -2.45420    9.93175   12.61871
      H1    -2.58959   10.29534   13.51191
       H     2.34900    9.83514   14.56664
       O     2.17400    9.18599   15.25602
      H1     2.77947    9.47366   15.98278
       H    -7.64730    7.22099   15.10271
       O    -6.73199    7.23323   14.77727
      H1    -6.14280    7.40721   15.52454
       H    -0.43698   14.44255   17.14332
       O    -0.98114   14.12853   16.48101
      H1    -1.73904   14.74339   16.56292
       H    -0.40404   15.12782   14.97065
       O    -0.58135   15.84145   14.29449
      H1    -0.72582   15.28077   13.48937
       H     4.82052    2.28396   19.21520
       O     5.37128    2.52298   18.51781
      H1     6.00519    1.78078   18.31649
       H    -1.73069    7.37605   17.51370
       O    -1.88744    7.34117   16.56044
      H1    -1.04326    7.58188   16.12829
       H    -1.73232    4.40487   16.07668
       O    -2.57697    4.79453   16.25096
      H1    -2.33540    5.72685   16.24716
       H     1.63052    8.69831    9.56403
       O     1.36639    8.94046   10.48001
      H1     1.08528    8.14889   10.94883
       H     0.91743    6.52022   15.87582
       O     0.45423    6.98020   15.16495
      H1     0.91653    7.79863   15.05460
       H     1.51920   12.38405   13.48285
       O     0.69063   12.89125   13.26730
      H1     0.22979   12.38358   12.60275
       H    -1.76155    2.94828   18.06904
       O    -0.87713    3.32216   18.11563
      H1    -0.74727    3.53962   19.03481
       H     1.80522    5.34563   17.82028
       O     1.23107    5.31686   17.07132
      H1     0.37674    5.08746   17.46138
       H    -3.48963   11.30245   15.12893
       O    -2.95609   10.47323   15.19130
      H1    -2.06599   10.73489   15.50311
       H     2.90812    2.23086   16.63426
       O     3.79891    2.51441   16.39311
      H1     4.37093    2.43537   17.25088
       H    -0.45526    6.33779   11.78635
       O     0.39352    6.72177   12.15744
      H1     0.31862    6.60303   13.14196
       H    -2.46255   10.70223   18.97118
       O    -3.33957   10.52275   19.35849
      H1    -3.47218    9.60442   18.99518
       H     3.56407    8.65747   11.80676
       O     4.11603    9.41078   11.98872
      H1     4.99372    9.06551   12.35337
       H     7.68721    4.61135   18.17332
       O     6.84441    5.00556   18.53179
      H1     6.28321    4.22509   18.69819
       H    -3.96704   13.43250   15.16959
       O    -4.46076   12.70513   14.84413
      H1    -5.08134   12.57859   15.58353
       H     0.35451   10.72570   15.55190
       O    -0.42174   11.24773   15.77826
      H1    -0.31767   12.12523   15.44819
       H    -1.41742    2.07936   15.35077
       O    -1.81085    1.28825   15.78611
      H1    -1.05327    0.69784   16.11975
       H     5.64052    8.10959   17.50084
       O     6.16971    8.68217   16.92729
      H1     6.69950    9.26450   17.55484
       H    -4.62021    7.45186   13.84105
       O    -4.08560    7.20690   13.10836
      H1    -3.57432    8.01261   12.93660
       H     3.70944   10.97134   13.10942
       O     3.11889   11.39245   13.78025
      H1     3.68397   12.08667   14.21479
       H    -1.76504    3.80720   12.73394
       O    -0.95033    3.69210   12.19425
      H1    -0.95522    2.72448   12.02534
       H    -5.57846   12.46011   17.44615
       O    -6.26256   12.04625   16.87313
      H1    -7.00931   12.66461   16.87679
       H    -7.59057    7.62916   18.65301
       O    -8.19198    6.92554   18.40099
      H1    -8.43702    7.11383   17.48064
       H    -4.44005    9.28601   15.97813
       O    -4.40835    8.36833   16.11639
      H1    -3.47065    8.10255   16.28717
       H    -4.78976    8.05126   18.33396
       O    -4.05091    7.85273   18.93546
      H1    -4.23618    8.24089   19.78041

