156
frame 5 | Written by MDAnalysis XYZWriter (release 2.4.3)
       H    18.60440   -9.56777   -7.55016
       O    18.18919  -10.20227   -6.92230
      H1    18.04941   -9.67510   -6.15390
       H    15.92829  -10.71708  -16.15022
       O    16.92109  -10.74242  -16.21283
      H1    17.26598   -9.97497  -15.73416
       H    15.13533   -1.40602  -16.62624
       O    14.81993   -0.59778  -16.31833
      H1    15.62430   -0.25149  -15.90645
       H    15.63608   -6.50941  -20.18488
       O    16.35331   -6.93581  -19.71802
      H1    16.12105   -7.07965  -18.74485
       H    10.96232   -9.94353  -11.13875
       O    10.69315   -9.02001  -11.47456
      H1    10.97565   -9.00443  -12.41435
       H    10.86671   -7.14072  -10.51920
       O    11.35841   -6.78855   -9.77632
      H1    11.96832   -7.50564   -9.56814
       H    16.94219  -14.11451  -15.84447
       O    16.02321  -14.36480  -15.63168
      H1    16.14234  -15.01910  -14.91293
       H    16.95095   -5.43106  -13.68227
       O    16.31409   -6.10093  -13.43076
      H1    15.71083   -5.60676  -12.85414
       H    15.11293   -6.32789  -14.56954
       O    14.48578   -6.40744  -15.28450
      H1    13.80309   -7.02331  -14.95951
       H    11.91530   -5.87763  -14.88462
       O    11.33986   -6.01324  -15.63108
      H1    10.57814   -6.51680  -15.26113
       H    18.32940   -0.55165  -14.67709
       O    17.77482    0.21649  -14.51211
      H1    17.75904    0.72266  -15.36681
       H    17.86666  -11.56144  -14.80880
       O    18.44010  -12.03820  -14.15250
      H1    18.74610  -12.84727  -14.56306
       H    12.68732  -11.51228   -9.86189
       O    12.99851  -11.14830   -9.08226
      H1    13.96679  -11.21888   -9.05158
       H    15.80585   -3.66188  -18.65718
       O    15.47667   -3.29016  -17.81933
      H1    14.87093   -3.93782  -17.46671
       H    14.97521   -2.94745  -14.16527
       O    14.30170   -3.48449  -14.63379
      H1    14.78336   -4.29482  -14.91784
       H    19.01773  -15.83198  -14.47234
       O    18.19647  -15.78012  -13.99077
      H1    18.08379  -14.88604  -13.65436
       H    14.10316  -13.11137  -12.05434
       O    14.53188  -12.94476  -11.23978
      H1    15.47693  -12.93007  -11.41888
       H    11.69495   -9.21898  -18.59109
       O    12.50155   -9.66128  -18.37536
      H1    13.15223   -9.30117  -19.04007
       H    12.24845   -1.50223  -13.63166
       O    12.01786   -2.41855  -13.53819
      H1    12.82256   -2.91053  -13.93342
       H    14.66619   -2.16122  -11.67539
       O    14.12769   -1.94806  -10.90175
      H1    13.82069   -2.79200  -10.61894
       H    14.97553  -13.19625  -18.71567
       O    15.58384  -13.91088  -18.99100
      H1    15.34213  -14.66544  -18.44575
       H    12.30861  -13.02197  -17.50337
       O    13.08451  -12.43473  -17.74724
      H1    12.65644  -11.55248  -17.94666
       H    18.35197   -8.44384  -14.21045
       O    18.57565   -8.46898  -15.15830
      H1    18.27226   -7.71927  -15.64252
       H    19.24060   -6.67294  -12.13232
       O    19.99813   -6.14856  -11.76413
      H1    19.78910   -5.22009  -11.91815
       H    13.31307   -9.36712   -8.82120
       O    13.24012   -8.38113   -8.75535
      H1    13.83803   -8.18388   -7.99733
       H    18.11117   -4.66280  -18.38720
       O    18.67086   -3.95907  -18.79950
      H1    18.83316   -3.45338  -18.07083
       H    17.42295   -3.12813  -10.56523
       O    17.86278   -3.97031  -10.75483
      H1    17.30701   -4.60495  -10.32508
       H    18.05890   -4.93617   -7.62684
       O    18.75776   -5.56574   -7.83991
      H1    19.05970   -6.07885   -7.05415
       H    19.37275  -13.10642   -9.46217
       O    19.24986  -13.66492  -10.32193
      H1    19.42175  -14.56054   -9.92541
       H    19.75593   -1.93212  -16.58031
       O    18.80687   -1.99153  -16.86232
      H1    18.72377   -1.22773  -17.47687
       H    14.58994   -9.66515  -13.89287
       O    14.41570  -10.04382  -13.01513
      H1    13.89700  -10.86679  -13.14345
       H    12.92881  -12.06501  -14.71619
       O    13.52102  -12.72966  -14.27613
      H1    14.26168  -12.84851  -14.89113
       H    15.73833   -8.29398  -10.44129
       O    14.93654   -7.85333  -10.67318
      H1    14.37175   -7.91425   -9.87271
       H    12.93955   -7.22159  -13.21216
       O    12.61733   -8.03922  -13.67500
      H1    13.10859   -8.72358  -13.22751
       H    18.14546   -7.00354   -8.65228
       O    17.95604   -7.87196   -9.14064
      H1    18.41281   -7.70274   -9.97373
       H    19.46178  -15.12152  -17.15467
       O    18.78846  -15.52569  -17.71383
      H1    18.97610  -15.02263  -18.47856
       H    19.24131   -9.13844  -12.65752
       O    18.54721   -8.41381  -12.62055
      H1    17.75214   -8.69888  -12.20140
       H    19.17879  -11.98732   -7.36288
       O    19.72661  -12.44303   -8.06386
      H1    19.99220  -13.21329   -7.56718
       H    13.88333   -6.58313  -11.71425
       O    13.49910   -5.89556  -12.31894
      H1    12.94757   -5.37876  -11.70146
       H    13.54264   -9.86505  -15.60104
       O    14.43815   -9.74357  -15.74389
      H1    14.43561   -8.91365  -16.26068
       H    16.32786  -10.68415   -8.17888
       O    15.61909  -11.06803   -8.78342
      H1    15.90498  -10.68067   -9.66311
       H    18.68386   -3.29670  -13.57185
       O    18.11089   -4.07192  -13.43396
      H1    17.82621   -4.13139  -12.52290
       H    16.72902   -7.05372  -17.02557
       O    15.91869   -7.56871  -17.17695
      H1    15.26325   -7.03021  -16.67455
       H    16.93884   -2.58598  -13.47622
       O    16.07273   -2.30791  -13.05446
      H1    15.96049   -1.37753  -13.23381
       H    17.85015  -12.95663  -11.16846
       O    17.23787  -12.61243  -11.85437
      H1    17.74258  -12.44596  -12.67413
       H    18.24769  -10.66110  -17.46461
       O    18.86080  -10.64766  -18.21184
      H1    19.54195  -11.28714  -17.98354
       H    10.83153  -11.23004  -14.90977
       O    11.70030  -11.12046  -15.28084
      H1    11.64248  -11.20757  -16.19610
       H    11.33278   -5.38835  -18.64854
       O    11.97508   -4.68384  -18.27931
      H1    12.06871   -5.06768  -17.37555
       H    16.95282   -3.32925   -6.62267
       O    16.86134   -3.56216   -7.60139
      H1    16.21403   -4.33815   -7.63152
       H    15.74672   -6.42209   -9.69844
       O    15.65586   -5.62942   -9.16328
      H1    14.70779   -5.36898   -9.22438
       H    17.03966  -10.83609  -11.40844
       O    16.63482   -9.94675  -11.34917
      H1    15.78506  -10.02463  -11.81787
       H    19.19278   -5.84451  -16.90977
       O    18.46428   -6.33934  -17.15437
      H1    18.78769   -6.99227  -17.81705

