156
frame 3 | Written by MDAnalysis XYZWriter (release 2.4.3)
       H    16.54222   12.41008    3.49772
       O    16.24227   12.44803    2.59745
      H1    17.06257   12.40073    2.05783
       H    16.69976    8.30398   -6.13573
       O    16.44401    8.86398   -6.90030
      H1    15.53404    9.16550   -6.75060
       H    18.30285   10.72398    1.84925
       O    18.78403   11.50878    1.48079
      H1    19.64589   11.45604    1.90522
       H    17.71774   14.63698   -5.38727
       O    16.76357   14.64098   -5.30466
      H1    16.29973   14.46927   -6.15983
       H    18.17087   16.77950   -7.66659
       O    17.22810   16.81043   -7.53885
      H1    17.18058   16.47158   -6.64309
       H    13.01292    4.07562   -6.25135
       O    12.82507    4.57984   -5.44879
      H1    13.04967    5.49352   -5.58793
       H    14.89633   10.74740   -4.96715
       O    15.58448   11.43536   -4.82485
      H1    15.36183   11.96763   -4.06193
       H    19.83048   15.72953   -3.89918
       O    19.21824   16.20664   -4.50019
      H1    18.69476   16.82812   -3.93706
       H    13.43010   12.47778  -11.43358
       O    13.95217   12.95101  -12.12969
      H1    13.68811   13.86858  -12.05297
       H    16.20339   12.53283  -12.16175
       O    17.12261   12.71688  -12.36880
      H1    17.61788   12.62249  -11.55025
       H    15.90893   10.61430   -9.88021
       O    15.81749    9.83970  -10.46374
      H1    14.89685    9.70799  -10.35690
       H    16.06502   12.99611   -9.40941
       O    15.82358   12.20661   -8.93616
      H1    16.57968   11.97078   -8.31137
       H    18.03794   11.92740   -3.70253
       O    17.79202   11.08407   -3.36963
      H1    16.92641   10.87056   -3.81350
       H    12.92317   15.98018   -8.76429
       O    13.36553   15.68466   -9.54996
      H1    12.98151   15.92360  -10.39453
       H    16.07705   11.44077    0.11309
       O    15.87903   10.59613    0.54813
      H1    15.74506   10.81256    1.45621
       H    11.05528    7.55787   -1.48286
       O    11.20922    8.33863   -0.94589
      H1    10.60340    8.93560   -1.36728
       H    19.44128    9.85644   -8.28600
       O    19.77326    9.01334   -8.64431
      H1    18.90896    8.72342   -9.04581
       H    15.62218    5.44964   -7.05216
       O    16.02842    5.36591   -6.19666
      H1    16.79349    5.97058   -6.24539
       H    11.80124   10.61626  -11.59059
       O    11.94297   11.20904  -10.77725
      H1    11.35039   10.85612  -10.11739
       H    11.40333   16.74015   -6.54796
       O    12.35120   16.47320   -6.72972
      H1    12.34335   15.49222   -6.66356
       H    18.28484   11.45300   -6.72106
       O    18.09625   10.93633   -7.47060
      H1    17.61380   10.14055   -7.13488
       H    16.61884    9.07406    0.58829
       O    17.43835    8.42219    0.61694
      H1    17.01663    7.58895    0.46361
       H    12.87809   10.74253   -2.44301
       O    12.43941   10.03434   -2.92389
      H1    12.13341    9.49740   -2.19198
       H    10.68507   11.27542   -8.17073
       O    10.65636   10.37409   -8.53756
      H1     9.79910    9.97046   -8.35566
       H     9.63298   12.68384   -6.95703
       O    10.26316   13.00912   -7.60032
      H1    11.06787   13.26985   -7.06489
       H    14.56003   15.75825    0.11325
       O    14.42289   16.27222   -0.68757
      H1    13.53668   16.06440   -0.96718
       H    16.08986   12.72962   -1.81082
       O    15.33800   12.79420   -2.40933
      H1    15.16076   13.73372   -2.52302
       H    18.65936   11.97770   -9.26119
       O    18.72023   12.35576  -10.13479
      H1    18.96417   13.24432  -10.03498
       H    18.60844    5.13017   -2.55901
       O    18.90107    5.76265   -1.86444
      H1    18.79958    6.61426   -2.29002
       H    15.41308   15.51422   -9.72515
       O    16.25085   15.12107   -9.68073
      H1    16.55849   15.45254   -8.82164
       H    12.39726    5.23450   -2.30651
       O    11.78461    5.96995   -2.43704
      H1    12.01792    6.33903   -3.28831
       H    11.59306   15.35823   -2.18668
       O    11.81296   16.01960   -1.52502
      H1    11.23049   15.93336   -0.75288
       H    10.53897   15.35297   -4.06244
       O    11.16566   14.65772   -3.68715
      H1    10.55078   13.95740   -3.49809
       H    10.25375   12.16742   -2.60881
       O     9.45451   12.64700   -2.73709
      H1     9.47608   13.38515   -2.13820
       H    16.91754    8.65761   -9.81393
       O    17.51692    7.90373   -9.76069
      H1    17.56640    7.52502  -10.65861
       H    15.02674   12.56910   -6.06758
       O    14.86037   13.30278   -6.66457
      H1    14.99571   12.94893   -7.54612
       H    18.75382    6.61938   -6.22081
       O    18.06144    6.96471   -5.62078
      H1    18.45791    7.16955   -4.77456
       H    13.01208    9.76469   -6.65450
       O    13.89357    9.51578   -6.40181
      H1    13.72452    8.63980   -5.91178
       H    13.05458   19.42771   -5.34737
       O    13.70941   18.73974   -5.20484
      H1    13.39569   17.85852   -5.45527
       H    19.49463    8.11279   -3.31822
       O    18.60410    8.33053   -3.05640
      H1    18.57633    9.30025   -2.92997
       H    12.51120   12.87387   -0.85973
       O    12.71712   12.44966   -1.69470
      H1    13.71671   12.41821   -1.76412
       H    14.60831    7.04714   -0.54935
       O    14.07348    7.79853   -0.55238
      H1    13.18987    7.54302   -0.88739
       H    14.04137    9.23000   -2.94385
       O    14.80102    8.65427   -2.93455
      H1    14.71373    8.16736   -2.09258
       H    14.93214    6.28145   -5.50875
       O    14.31050    6.94609   -5.09829
      H1    14.69553    7.29877   -4.31259
       H    12.83568    7.91863   -9.45331
       O    13.49297    7.61947  -10.06925
      H1    14.16437    7.21114   -9.53321
       H    17.77904   11.75303   -1.82584
       O    17.74565   12.37496   -1.07566
      H1    18.23213   12.25018   -0.28905
       H    16.80387   17.62502   -3.45813
       O    17.68013   18.06144   -3.36469
      H1    17.96209   18.48977   -4.19313
       H    12.84667   13.19331    1.45247
       O    11.99674   13.06808    0.94235
      H1    11.77398   12.14742    1.21843
       H    16.21587    6.62633   -8.77816
       O    15.43559    6.07993   -8.69852
      H1    15.61239    5.28687   -9.19945
       H    10.51818    6.41371   -4.92404
       O    10.36837    7.35245   -5.14449
      H1    10.45008    7.87617   -4.35963
       H    14.93365   16.27115   -4.28724
       O    15.64984   16.37350   -3.68644
      H1    16.35464   15.77464   -4.03866
       H    13.35055   13.63565   -6.22819
       O    12.40880   13.79865   -6.00406
      H1    12.35014   13.79128   -5.06125

