156
frame 11 | Written by MDAnalysis XYZWriter (release 2.4.3)
       H     3.48823   -4.49722   -5.24959
       O     4.23700   -4.96167   -5.66507
      H1     3.90304   -5.86308   -5.87204
       H     5.11438   -1.81659   -2.79982
       O     4.49695   -2.55279   -2.71707
      H1     4.94294   -3.38944   -2.93568
       H     0.13844   -8.47337   -2.02650
       O    -0.02824   -8.51764   -2.96075
      H1    -0.41000   -7.66876   -3.13845
       H    -0.58173   -0.64094   -2.46149
       O    -1.24919   -0.74897   -1.77271
      H1    -0.74985   -1.28342   -1.14078
       H     1.32424   -8.39138   -3.84744
       O     2.29748   -8.37232   -4.07107
      H1     2.38972   -8.09746   -5.03834
       H    -0.62910   -4.88176   -3.03191
       O    -0.23001   -4.87883   -3.95231
      H1    -0.87773   -4.38166   -4.46780
       H     7.40275   -3.51404    0.64210
       O     6.86363   -3.18161    1.36633
      H1     6.01853   -2.95501    0.87897
       H     1.66136    1.49613   -5.18400
       O     1.38130    2.40201   -5.04877
      H1     0.57346    2.48863   -5.62264
       H     3.52224   -4.41973   -9.44254
       O     3.00561   -4.56298  -10.20233
      H1     3.58955   -4.99524  -10.85213
       H     1.68516   -4.09227   -5.46894
       O     2.08298   -3.42157   -4.84799
      H1     1.85812   -3.83530   -3.97049
       H     0.11868   -3.66624   -8.81613
       O     0.15655   -2.69949   -9.05093
      H1    -0.54799   -2.33729   -8.52855
       H    -0.55181   -6.76771  -10.12535
       O    -1.00150   -7.62590  -10.46281
      H1    -1.89783   -7.33339  -10.61856
       H    -0.24273   -4.92142    1.49387
       O     0.08655   -4.15766    0.96772
      H1     1.02766   -4.02828    1.14021
       H     0.88191   -2.01345   -5.01189
       O     0.42445   -1.23183   -5.40386
      H1     0.77101   -1.18290   -6.31576
       H     7.04210   -6.58864   -0.08042
       O     7.29312   -6.01884   -0.83559
      H1     8.02190   -5.47657   -0.49420
       H     3.52326   -9.71523   -9.81743
       O     3.51491   -8.89052  -10.31303
      H1     4.28490   -8.33724  -10.11966
       H     1.06797   -5.75924   -9.70243
       O     0.17392   -5.62680   -9.25606
      H1     0.36418   -5.73769   -8.32521
       H     3.04112   -3.98769   -1.92457
       O     2.39438   -4.64837   -2.21763
      H1     2.93730   -5.45803   -2.23558
       H     4.27263   -6.19855   -3.24795
       O     3.92703   -6.80310   -2.58789
      H1     3.33200   -7.37666   -3.14848
       H     4.67734   -4.00636   -7.26724
       O     4.74286   -3.49524   -8.13444
      H1     5.61636   -3.74108   -8.45975
       H     3.21725   -3.24730    0.94962
       O     2.68983   -3.45832    1.71785
      H1     3.27408   -3.57222    2.48502
       H     3.49516   -0.55654   -4.29937
       O     2.88407   -0.15135   -4.99008
      H1     2.05246   -0.62271   -4.90650
       H     6.50560    0.10591   -2.30258
       O     5.56658    0.03243   -2.53029
      H1     5.18539    0.33934   -1.70027
       H     4.77951   -0.13271   -9.15813
       O     5.44775    0.14037   -9.75320
      H1     5.03967    0.81428  -10.39302
       H     7.79733   -6.96987   -7.43060
       O     7.07261   -6.34931   -7.60478
      H1     7.47470   -5.76984   -8.29358
       H    -1.63728   -2.38288   -5.34979
       O    -2.05255   -3.29183   -5.25088
      H1    -3.01079   -3.16916   -5.26777
       H     3.78576  -11.19529   -6.20154
       O     3.52353  -11.86578   -6.86049
      H1     3.43732  -12.57301   -6.21315
       H     9.62990   -4.65030   -6.55594
       O    10.43599   -5.18604   -6.45539
      H1    10.23087   -5.98120   -6.86631
       H     7.85227   -2.95435   -8.63304
       O     7.44449   -3.50123   -9.31062
      H1     7.30171   -2.82190   -9.99914
       H     4.29965   -8.19734   -6.71152
       O     3.54734   -7.70831   -6.50394
      H1     2.79773   -8.06897   -7.04737
       H     1.16252   -7.89605    0.12228
       O     0.48118   -8.52066   -0.04901
      H1     0.99583   -9.36910   -0.12491
       H     2.71643   -1.37712  -10.90240
       O     3.14396   -2.06779  -11.38383
      H1     3.19245   -2.87872  -10.91181
       H     5.95259   -1.61876   -5.36200
       O     6.61314   -2.06475   -4.84403
      H1     6.98465   -1.46392   -4.18340
       H     5.28461    1.74358   -3.23617
       O     5.43889    2.53693   -3.75400
      H1     5.19568    3.32503   -3.17596
       H     2.15680   -8.36950   -9.15822
       O     1.63477   -8.20511   -8.30697
      H1     1.04076   -8.95307   -8.28092
       H     2.46732   -7.75297  -11.19089
       O     2.33408   -6.98802  -11.78131
      H1     1.46971   -7.14059  -12.15341
       H     6.48749   -5.53296   -2.72178
       O     5.85958   -4.98846   -3.24443
      H1     6.31677   -4.91590   -4.09313
       H     8.95958   -1.46694   -7.72765
       O     8.68148   -2.32104   -7.39579
      H1     8.33446   -2.11380   -6.51586
       H    -0.38479   -4.35003   -0.65636
       O    -0.98592   -4.60664   -1.38829
      H1    -1.22656   -3.77843   -1.73918
       H     5.23887   -9.43990   -1.46253
       O     4.45445   -9.06177   -1.04555
      H1     4.43520   -8.13407   -1.22549
       H     4.66248   -1.51368   -7.20952
       O     4.90704   -0.83900   -6.60382
      H1     4.06058   -0.55853   -6.14037
       H     4.44883   -1.26503    0.02106
       O     4.64452   -2.22254   -0.07124
      H1     4.49986   -2.37519   -1.05222
       H     1.47336   -6.12776   -6.73907
       O     0.99344   -5.31558   -6.62657
      H1     0.44835   -5.44656   -5.86358
       H     4.87743   -9.90788   -5.31443
       O     4.14191  -10.29294   -4.81929
      H1     3.63000   -9.52829   -4.53687
       H     8.67971    0.29349   -3.66142
       O     8.41003   -0.54113   -3.12927
      H1     8.48450   -0.27021   -2.19862
       H     6.46507   -9.74235   -7.29513
       O     6.20102   -9.27115   -6.46920
      H1     6.96310   -9.18216   -5.96941
       H     8.66166   -8.44605   -4.01225
       O     8.31553   -9.25520   -4.29242
      H1     7.87450   -9.62113   -3.50241
       H     5.69691   -6.79165   -8.88870
       O     5.45568   -6.91245   -9.81144
      H1     6.16317   -7.36411  -10.28097
       H     7.24209   -5.16948   -6.10172
       O     7.73575   -4.75221   -5.35556
      H1     7.27784   -3.97244   -5.08462
       H     5.19407    0.81763   -6.64757
       O     5.30088    1.74845   -6.63211
      H1     5.32296    2.03069   -5.70256
       H    10.54050   -7.48744   -4.52643
       O     9.77975   -7.07016   -4.09044
      H1     9.48935   -6.33700   -4.63733
       H     1.50181   -0.18227   -9.03681
       O     1.64523   -0.76499   -8.28619
      H1     1.23957   -1.58357   -8.48600

