156
frame 9 | Written by MDAnalysis XYZWriter (release 2.4.3)
       H    -9.57654   19.76010   -6.86814
       O    -9.36325   19.06326   -6.24295
      H1   -10.07724   19.12218   -5.59167
       H    -8.70842   11.37554  -12.46960
       O    -8.87100   12.32117  -12.77498
      H1    -9.28328   12.76465  -11.99319
       H    -3.45316   14.04584  -10.55764
       O    -3.42946   13.06415  -10.43220
      H1    -3.93176   12.69302  -11.16613
       H    -9.71997    8.66559   -7.70287
       O    -9.04529    8.01819   -7.40058
      H1    -9.48341    7.18683   -7.48870
       H    -7.07795    9.88883   -5.41369
       O    -6.90051    9.29662   -6.11111
      H1    -7.73694    8.88031   -6.27249
       H    -0.97680    8.45914   -5.65054
       O    -1.30642    8.48624   -6.57142
      H1    -2.01626    9.09601   -6.72736
       H    -9.67014   11.43823   -7.80565
       O   -10.14401   10.59036   -7.65910
      H1   -10.25682   10.48182   -6.71462
       H    -4.50885    7.42376   -5.04461
       O    -4.41269    8.38486   -5.29050
      H1    -5.22154    8.49373   -5.77729
       H    -4.01922    9.37169   -3.95871
       O    -3.67608    9.84095   -3.16261
      H1    -4.16975    9.45866   -2.47597
       H    -8.57815   12.28994   -4.03077
       O    -8.54752   13.28907   -4.00151
      H1    -7.96582   13.46366   -4.72333
       H    -9.31280   11.48742   -0.35784
       O    -8.47840   11.41184    0.01797
      H1    -7.98498   12.15093   -0.30850
       H    -1.18437   15.67702   -3.73431
       O    -1.65028   16.50744   -3.81327
      H1    -1.37223   16.91391   -4.68195
       H    -6.25197   18.09171   -3.99263
       O    -7.06828   18.50142   -3.81232
      H1    -6.90710   19.05916   -3.07838
       H   -12.01959    9.69032   -7.72574
       O   -12.60459    8.98973   -7.83757
      H1   -13.48880    9.38002   -7.74887
       H   -11.27739   14.81733   -4.33530
       O   -11.16809   15.72294   -3.90111
      H1   -10.24765   15.96960   -4.14135
       H    -6.43381   15.21977  -11.91713
       O    -6.68489   15.47285  -11.01175
      H1    -5.84893   15.60747  -10.53205
       H    -9.10090   17.02799  -13.04269
       O    -8.96846   17.19878  -12.08929
      H1    -8.44967   16.42333  -11.83397
       H   -10.43967   17.09541   -8.29334
       O   -10.98557   17.80966   -8.63752
      H1   -11.08551   18.36208   -7.89191
       H    -6.18465   11.51936   -8.48580
       O    -5.31499   11.91513   -8.11902
      H1    -4.82846   12.28856   -8.87132
       H    -8.04098    9.56706  -11.07954
       O    -7.88476    9.67744  -12.08438
      H1    -8.58121    9.14911  -12.44761
       H    -5.10494   11.23370  -12.94007
       O    -4.83136   11.87418  -12.28035
      H1    -5.42667   12.63449  -12.54773
       H    -8.73202   17.53829   -6.77537
       O    -8.82568   16.55156   -6.96579
      H1    -7.91205   16.40927   -7.11967
       H    -7.05557   15.74873   -2.90012
       O    -6.44035   15.48841   -2.20134
      H1    -6.48220   14.51496   -2.13250
       H    -1.38518    9.83198  -10.31714
       O    -1.77410   10.38715  -11.04299
      H1    -2.32423   11.07799  -10.53156
       H    -3.46036   16.81478   -4.29360
       O    -4.32046   17.33695   -4.27223
      H1    -4.44351   17.45057   -3.30674
       H    -4.05629   11.63035   -3.38792
       O    -4.53441   12.44924   -3.60458
      H1    -4.67932   12.47084   -4.52261
       H    -4.96297   15.66665   -8.87318
       O    -4.11816   15.63848   -9.47954
      H1    -3.89811   16.58780   -9.47088
       H    -8.93592   14.07504   -2.10188
       O    -9.54460   14.14109   -1.34950
      H1    -9.93424   13.29318   -1.25832
       H   -11.58134   10.94092   -2.87914
       O   -12.22474   11.27409   -3.48478
      H1   -12.92039   11.82106   -3.07539
       H    -8.66189   16.47312   -5.12734
       O    -8.57991   16.30104   -4.16590
      H1    -8.20420   17.14813   -3.88540
       H    -0.90442   11.52379   -8.19955
       O    -0.37254   10.73835   -8.31757
      H1     0.49983   10.98772   -8.59900
       H    -6.28769   15.01384   -6.97712
       O    -6.08923   15.93781   -7.32788
      H1    -5.29775   16.24584   -6.93618
       H   -13.36341   16.97836   -6.11329
       O   -12.41570   16.99692   -6.04607
      H1   -12.15825   16.37135   -5.35583
       H    -4.41558   10.53758   -7.50815
       O    -3.74774    9.80035   -7.33088
      H1    -4.08216    9.18038   -6.61093
       H    -9.62500   13.45473   -8.41101
       O    -9.39930   13.18376   -7.54138
      H1   -10.10619   13.33572   -6.88257
       H    -7.35500   13.27923  -13.12190
       O    -6.52710   13.72944  -13.36019
      H1    -6.78292   14.49398  -13.93272
       H   -12.87671   15.42228   -8.23311
       O   -12.24921   14.95638   -7.70883
      H1   -12.04517   15.69956   -7.06504
       H    -5.93885   12.30899   -1.88285
       O    -6.39543   12.89824   -1.21124
      H1    -5.80958   13.06348   -0.48586
       H    -4.31157    7.96614   -9.87400
       O    -4.91256    8.39717   -9.19596
      H1    -4.33463    8.90949   -8.56220
       H   -11.44228    9.83734   -4.71539
       O   -10.73740    9.34871   -5.10407
      H1   -10.86159    8.37954   -4.84064
       H    -3.71499   17.19079   -1.22768
       O    -4.53405   17.62622   -1.54706
      H1    -5.27685   17.03774   -1.41478
       H    -6.15491   12.95392   -6.89768
       O    -6.85214   13.50213   -6.45076
      H1    -7.70047   13.42315   -6.95440
       H    -3.73486   19.60249   -6.15074
       O    -3.85142   18.69201   -6.48865
      H1    -4.06522   18.27021   -5.64559
       H    -6.44627    9.27959   -9.50187
       O    -7.35921    9.66387   -9.42884
      H1    -7.81873    9.25060   -8.71170
       H    -1.85085   14.24898   -5.61603
       O    -2.18913   14.81867   -6.31958
      H1    -1.40893   15.40358   -6.53692
       H    -2.89500   13.03267   -3.72051
       O    -1.93127   13.12199   -3.92435
      H1    -1.58518   12.23486   -4.00348
       H    -7.68681   10.34290   -1.07716
       O    -7.21163    9.64743   -1.65887
      H1    -7.56905    8.81438   -1.42233
       H    -2.42161   13.32215   -8.85546
       O    -1.69657   13.09383   -8.22020
      H1    -1.89318   13.71728   -7.48488
       H   -10.53433   14.08319  -10.31353
       O    -9.63989   13.70605  -10.32785
      H1    -9.04706   14.42231  -10.48915
       H    -3.66971   18.97497   -9.71304
       O    -3.21373   18.32764   -9.14979
      H1    -3.59694   18.48705   -8.25089
       H    -8.11455   10.18890   -3.21560
       O    -8.22064   10.73030   -4.01486
      H1    -9.04093   10.40597   -4.43365
       H   -11.50946   12.57937   -4.44595
       O   -10.99768   13.22719   -4.99154
      H1   -10.10994   13.28902   -4.57235

