156
frame 6 | Written by MDAnalysis XYZWriter (release 2.4.3)
       H    -9.88666  -16.62888   -8.58101
       O    -9.38710  -16.78198   -9.40998
      H1    -8.96055  -17.64540   -9.39810
       H    -2.96059  -16.22794  -10.55044
       O    -3.36061  -17.06573  -10.75420
      H1    -3.66493  -16.89176  -11.68759
       H   -10.73023  -15.74783  -17.29420
       O   -11.31154  -15.07680  -16.94780
      H1   -10.73138  -14.31997  -16.84456
       H    -7.80556  -16.61707  -12.85818
       O    -7.90559  -17.34568  -12.21647
      H1    -7.21499  -17.97678  -12.39902
       H    -6.48757  -12.61378  -14.58027
       O    -5.87013  -13.36006  -14.71752
      H1    -5.21873  -13.17327  -15.38730
       H    -7.29052  -11.47326  -10.36262
       O    -7.17206  -10.95983  -11.17512
      H1    -6.21839  -10.80736  -11.31349
       H   -10.88871  -15.88552  -12.47024
       O   -10.87265  -15.45779  -11.60764
      H1   -10.16279  -15.92446  -11.17948
       H   -10.58234  -10.79474  -13.97459
       O   -11.10422  -11.25856  -14.58063
      H1   -10.55550  -11.96652  -14.97273
       H    -3.96151  -17.72382  -13.56328
       O    -3.85089  -16.76933  -13.44784
      H1    -2.88604  -16.79739  -13.16241
       H    -8.34170  -12.32401  -12.48688
       O    -8.40074  -13.19400  -12.77940
      H1    -7.90914  -13.67885  -12.10410
       H   -14.15566  -10.65707  -13.09752
       O   -13.63617   -9.83664  -13.03966
      H1   -14.19787   -9.09781  -13.33915
       H    -6.93200  -15.82183  -11.60642
       O    -6.87275  -14.83269  -11.34041
      H1    -6.03640  -14.41320  -11.57058
       H   -10.36897  -12.56819  -10.60906
       O   -10.08130  -12.14165   -9.79736
      H1   -10.28739  -12.77445   -9.13263
       H   -12.35441  -16.88818  -14.06413
       O   -11.42509  -16.64000  -14.26871
      H1   -11.48436  -16.06860  -15.05680
       H   -10.61846  -14.76529   -7.76549
       O   -10.59458  -13.77671   -7.63289
      H1    -9.92367  -13.67127   -6.96188
       H    -7.33484  -10.74975  -16.56330
       O    -7.23617  -10.80738  -15.62988
      H1    -8.00897  -10.45169  -15.22156
       H    -8.00042  -18.44655   -5.65651
       O    -7.55012  -17.62041   -5.42201
      H1    -7.26621  -17.31208   -6.27092
       H    -5.86487  -16.33836  -14.16451
       O    -6.68134  -16.04234  -14.48587
      H1    -6.66017  -15.05415  -14.39903
       H    -9.18694  -13.19446  -15.06095
       O    -9.65199  -12.98916  -15.88601
      H1    -8.91542  -12.61825  -16.44547
       H    -5.62466  -16.32013   -7.50755
       O    -6.44339  -16.72245   -7.89831
      H1    -6.86680  -15.93649   -8.31165
       H   -14.10315  -12.95831  -14.81776
       O   -14.06390  -13.60443  -14.06238
      H1   -13.19043  -13.49111  -13.65235
       H    -4.80067   -9.73702  -12.63871
       O    -4.42018  -10.32721  -11.97824
      H1    -4.02956   -9.75866  -11.29699
       H   -11.31934   -8.20870  -10.21102
       O   -11.30220   -8.30533  -11.14789
      H1   -11.88863   -7.55617  -11.46705
       H    -5.73415  -19.12012  -11.36092
       O    -5.99972  -19.16298  -12.32980
      H1    -6.66602  -19.90283  -12.47962
       H    -4.77632  -13.12496  -13.28099
       O    -4.43126  -13.24794  -12.40156
      H1    -4.27545  -12.32724  -12.09801
       H    -8.62925  -10.04441  -12.29412
       O    -9.39740   -9.75903  -12.79253
      H1   -10.05666   -9.33710  -12.23590
       H    -7.40395   -9.16190  -10.20376
       O    -7.61808   -8.37808   -9.67843
      H1    -6.77719   -7.97621   -9.48939
       H    -2.75969  -12.79446  -16.56752
       O    -3.52007  -13.43529  -16.34271
      H1    -3.13310  -14.11958  -15.81714
       H   -10.15683  -10.32638   -6.63621
       O   -10.20489  -10.15569   -5.69907
      H1   -10.91169  -10.69330   -5.35571
       H    -4.53217  -14.55676   -7.77504
       O    -4.31400  -15.27772   -7.17738
      H1    -4.61864  -15.02295   -6.31440
       H    -2.96441  -13.88769  -11.42227
       O    -2.10780  -14.30813  -11.32617
      H1    -1.83897  -13.82617  -10.51801
       H    -5.03943   -9.16575  -16.83356
       O    -4.45252   -9.17165  -16.05814
      H1    -4.91129   -8.93205  -15.25057
       H    -6.36468   -8.24732  -13.72255
       O    -5.46614   -8.49009  -13.56189
      H1    -4.84896   -7.71086  -13.61729
       H   -11.12822  -12.60771  -12.93176
       O   -11.53353  -12.97100  -12.16051
      H1   -11.34262  -13.91238  -12.05793
       H    -3.51759  -12.25594   -8.44272
       O    -4.27369  -12.79074   -8.89661
      H1    -4.98749  -12.16317   -9.07440
       H   -12.21871   -8.25756  -13.39975
       O   -12.33104   -7.29636  -13.48956
      H1   -12.03576   -7.18044  -14.43835
       H    -1.74046  -16.21439  -15.93004
       O    -2.01909  -15.54708  -15.31383
      H1    -2.83710  -15.89870  -14.93631
       H    -2.35313  -10.97023  -12.81536
       O    -1.57114  -11.48543  -12.64628
      H1    -1.77454  -12.29978  -12.19470
       H    -9.86588  -17.86348  -17.29702
       O    -9.60244  -17.08755  -17.85423
      H1    -8.80527  -16.75833  -17.38158
       H    -7.35373  -14.45926   -9.56949
       O    -8.11168  -14.57398   -8.89866
      H1    -8.58240  -15.26537   -9.39998
       H    -6.32363  -17.04646  -17.34962
       O    -6.96845  -16.29473  -17.22554
      H1    -6.96894  -16.08942  -16.28385
       H    -6.18183  -14.71723  -17.84941
       O    -5.84775  -13.95889  -18.32764
      H1    -4.99535  -13.67781  -17.93457
       H   -10.40642  -17.82858  -13.20117
       O   -10.25404  -18.51613  -12.51837
      H1    -9.35788  -18.26289  -12.16285
       H   -11.45859  -17.52309   -7.71493
       O   -11.06547  -16.64305   -7.41319
      H1   -10.83934  -16.77718   -6.46560
       H   -11.50609  -10.97065   -9.44407
       O   -12.04510  -10.39477   -8.84838
      H1   -12.56153  -11.03311   -8.32376
       H    -6.46771  -12.76027   -5.13766
       O    -5.84935  -12.90776   -5.86002
      H1    -6.23449  -12.56747   -6.64299
       H    -4.86233  -17.77231   -9.98783
       O    -5.32296  -18.47463   -9.56995
      H1    -5.88523  -18.00300   -8.92686
       H    -7.32945  -12.69084  -18.20016
       O    -8.12360  -12.13959  -18.12493
      H1    -7.78081  -11.22209  -18.27937
       H    -8.62185   -9.46528   -8.69089
       O    -8.96157  -10.24982   -8.23655
      H1    -9.52094  -10.76245   -8.87380
       H    -7.33509  -12.87232   -8.50025
       O    -6.96821  -11.98309   -8.58885
      H1    -7.78412  -11.39007   -8.29184
       H   -13.48125  -13.07873  -10.75984
       O   -13.80932  -13.35810   -9.95272
      H1   -13.45071  -14.17414   -9.54372
       H   -12.39093   -9.55920  -16.99262
       O   -12.42463   -9.45500  -16.00590
      H1   -11.94265  -10.29799  -15.69364

