156
frame 9 | Written by MDAnalysis XYZWriter (release 2.4.3)
       H    14.86367    3.19143  -18.07370
       O    15.73359    3.38011  -18.44565
      H1    15.79949    2.97710  -19.32027
       H     7.15550   -6.36864  -12.46024
       O     8.08116   -6.28091  -12.24511
      H1     8.08461   -6.04464  -11.34170
       H     8.76157   -5.52144  -15.26222
       O     8.22064   -4.88296  -15.76156
      H1     7.68993   -4.48010  -15.06658
       H    14.22568   -0.10380  -15.76247
       O    14.72774    0.43160  -16.46235
      H1    15.63259    0.54016  -16.14814
       H     8.13890   -6.52510  -17.51477
       O     8.86058   -7.04827  -17.88284
      H1     8.70315   -6.89360  -18.82741
       H    13.05785    2.25248  -18.25811
       O    13.26169    2.49566  -17.32316
      H1    13.78038    1.71514  -16.98873
       H     8.39237    1.44542  -16.00487
       O     7.72699    1.68588  -16.66389
      H1     8.19179    2.19965  -17.28632
       H     4.41357   -5.41703  -18.15322
       O     5.08493   -5.95146  -18.55440
      H1     4.74560   -6.87561  -18.71560
       H     9.06819   -1.25687  -19.94447
       O     9.35857   -1.69637  -19.12690
      H1    10.13784   -2.20166  -19.39507
       H    10.27355   -0.90169  -17.61017
       O    10.97427   -0.89548  -16.91917
      H1    10.78911   -1.61902  -16.33051
       H    14.95169   -5.21112  -13.50123
       O    14.69941   -4.98035  -14.37087
      H1    13.92172   -5.56228  -14.57324
       H     5.59305   -6.22401  -16.88473
       O     5.46764   -6.69752  -16.01483
      H1     5.37034   -5.99971  -15.31167
       H    10.41353   -6.21868  -17.82198
       O    11.30356   -5.86028  -17.75242
      H1    11.88833   -6.22296  -18.44268
       H    17.52311    0.15035  -15.29374
       O    17.20118    1.00716  -15.55232
      H1    17.79691    1.20199  -16.28552
       H     9.79187   -9.96595  -15.55226
       O    10.32959   -9.51553  -16.25860
      H1     9.76169   -8.78605  -16.50294
       H    11.53463    6.20148  -15.13940
       O    11.02707    5.93670  -15.92674
      H1    10.60928    5.14755  -15.79083
       H     4.46055    2.54612  -14.61041
       O     4.19632    1.70832  -14.18110
      H1     4.82079    1.05152  -14.52787
       H     8.50645    4.25343  -16.55594
       O     8.37035    4.58930  -15.61007
      H1     8.13918    5.52651  -15.76360
       H    11.18870   -4.59157   -9.57745
       O    11.06719   -4.83219  -10.55296
      H1    10.67980   -3.95727  -10.88067
       H    10.31907    0.24170  -15.64101
       O     9.69814    0.84781  -15.13939
      H1     9.41618    0.25462  -14.46345
       H    14.09002   -0.65647  -17.80846
       O    13.39836   -0.89133  -18.48049
      H1    12.54206   -0.94122  -18.00059
       H    14.20360   -3.09127  -14.97772
       O    14.34698   -2.13286  -15.21001
      H1    15.15816   -2.19784  -15.72121
       H    12.39608   -9.47364  -16.67592
       O    13.21355   -8.90188  -16.68946
      H1    13.43636   -8.72327  -17.62953
       H    10.89219   -2.48037  -12.01808
       O    11.35092   -2.57811  -12.83332
      H1    12.31289   -2.45308  -12.62445
       H     7.01222   -4.49788  -13.26904
       O     6.61015   -3.74878  -13.73434
      H1     5.71486   -4.08907  -13.95626
       H    10.56383    6.28089  -19.07242
       O     9.90394    5.85277  -18.54032
      H1    10.28539    6.03947  -17.67468
       H    10.96062    2.90729  -17.79072
       O    10.14109    3.07344  -18.19231
      H1    10.22380    4.01324  -18.43173
       H    17.08362   -4.18154  -17.16384
       O    16.92827   -3.27941  -17.42133
      H1    17.77701   -3.01758  -17.83685
       H     6.83932   -0.25784  -14.38740
       O     6.24123   -0.10292  -15.13928
      H1     6.81280    0.56406  -15.60271
       H     6.99546   -9.01000  -14.61320
       O     7.03027   -8.82775  -15.53386
      H1     6.46369   -8.03225  -15.58621
       H     4.21773   -9.02022  -18.04183
       O     4.64246   -8.68864  -18.86294
      H1     5.58832   -8.94708  -18.69825
       H     5.41714    4.32474  -15.45242
       O     5.12592    3.67526  -16.10490
      H1     5.99619    3.40660  -16.41647
       H    12.90828    1.62652  -14.11135
       O    13.01082    1.29764  -13.19775
      H1    13.04262    2.14403  -12.66303
       H     7.71760   -0.60970  -12.13456
       O     8.29795   -0.15441  -12.75520
      H1     8.61588    0.72135  -12.30540
       H     7.07580   -9.68738  -17.19637
       O     7.36849   -9.71863  -18.13270
      H1     7.70944   -8.84472  -18.24360
       H    12.31555    2.63475  -15.89097
       O    11.74656    2.82054  -15.13622
      H1    11.01813    2.14381  -15.09957
       H     9.41170   -2.11419  -10.00161
       O     9.45257   -2.31648  -10.92445
      H1     8.56530   -2.25362  -11.30970
       H    10.44816   -2.60683  -14.27126
       O     9.90083   -2.51064  -15.11878
      H1     9.49546   -3.40491  -15.27898
       H    13.28029   -7.69105  -14.03602
       O    12.86784   -7.05972  -14.54468
      H1    12.96755   -7.46253  -15.41508
       H     2.37994   -4.40307  -18.74764
       O     2.76090   -4.47102  -17.88292
      H1     2.06020   -4.94674  -17.44705
       H    10.62919   -6.84225  -14.19745
       O     9.70837   -6.68519  -14.33629
      H1     9.39871   -6.42370  -13.51868
       H    16.49703   -6.66578  -16.18858
       O    16.66860   -6.57599  -15.25125
      H1    15.87018   -6.17709  -14.91453
       H     2.90540    1.60694  -15.41151
       O     2.39046    1.44538  -16.20833
      H1     2.96182    1.59907  -16.93810
       H    14.05984   -1.84941  -13.54578
       O    14.17146   -1.68449  -12.61033
      H1    14.31004   -0.77944  -12.55402
       H    11.56742    0.94603  -11.55134
       O    11.61687    0.83709  -10.60669
      H1    10.90989    1.45680  -10.35293
       H     6.01257   -1.46959  -11.31455
       O     6.70711   -2.12360  -11.50561
      H1     6.60095   -2.50171  -12.37796
       H    10.81943  -10.08733  -18.19108
       O    11.02164  -10.67302  -18.97006
      H1    11.36331  -11.52088  -18.45594
       H     3.55711   -2.12270  -15.01767
       O     3.92430   -2.94147  -14.58361
      H1     3.60058   -2.90675  -13.65948
       H    11.44689   -3.89575  -18.35812
       O    11.68912   -3.21507  -18.99449
      H1    12.35302   -2.59112  -18.58654
       H    14.61487   -6.27426  -18.15601
       O    15.28934   -5.93497  -17.53763
      H1    14.88434   -5.44025  -16.90013
       H     8.18537   -4.21790  -17.49464
       O     8.33633   -4.08756  -18.44722
      H1     8.75894   -3.18464  -18.45690
       H     6.65439   -1.23385  -17.02289
       O     6.59114   -1.38081  -17.95975
      H1     7.53907   -1.38040  -18.24286

