156
frame 8 | Written by MDAnalysis XYZWriter (release 2.4.3)
       H   -14.44420   15.02578    3.69250
       O   -14.03667   14.93784    4.55747
      H1   -14.41645   15.63772    5.15503
       H   -12.02441   10.63675    3.64991
       O   -12.67313   11.11823    4.19485
      H1   -13.17363   11.70859    3.55867
       H   -16.28317   14.09055    2.69707
       O   -16.48071   13.27773    3.19352
      H1   -15.65329   12.87651    3.15313
       H   -16.58040    6.86535   10.16984
       O   -16.59763    7.32479   11.06278
      H1   -17.49911    7.76049   11.24841
       H   -16.06432    5.03578    7.12766
       O   -15.75236    4.20239    6.78596
      H1   -14.77446    4.22387    6.90369
       H   -18.27054   11.36103    6.14994
       O   -18.06949   10.99036    7.05561
      H1   -17.96274   11.69762    7.71844
       H    -8.43741    7.59424    6.93277
       O    -7.62802    7.20826    6.75331
      H1    -7.80722    6.26761    6.53142
       H   -13.05699    9.60741    7.02483
       O   -12.32158    9.37062    7.59927
      H1   -12.40688    8.48397    7.86768
       H   -11.86390    6.29589    8.85633
       O   -12.12189    5.87860    8.02858
      H1   -11.33622    6.03299    7.47947
       H   -19.34711    7.27240    1.81010
       O   -18.60239    6.77181    2.19817
      H1   -17.79699    7.03626    1.72995
       H   -13.32453    9.37323   -0.32638
       O   -12.66362    9.15717   -1.01469
      H1   -12.51239    8.25065   -0.78491
       H   -14.85472    8.42392   10.58192
       O   -14.66543    9.28623   10.25650
      H1   -15.33893    9.81207   10.76857
       H   -16.02560    9.60621    8.86649
       O   -16.49240    9.16697    8.15513
      H1   -17.09716    9.75652    7.60599
       H    -9.79043    6.14480    4.35709
       O    -9.29827    5.99298    3.50233
      H1    -8.40718    5.69512    3.76075
       H   -16.25385    5.42557    3.93513
       O   -16.75032    4.67095    4.20150
      H1   -16.31915    4.31186    5.01303
       H   -11.11802    9.65128    6.06957
       O   -10.35455    9.26519    5.63923
      H1   -10.48316    9.52899    4.71217
       H    -8.79900    7.79540    1.50980
       O    -9.45129    8.09304    0.80906
      H1    -9.05391    8.83091    0.46377
       H    -8.74637   12.73760    2.83863
       O    -8.52429   11.86500    2.54058
      H1    -8.91439   11.75482    1.69334
       H   -13.02485   13.22033    2.22005
       O   -13.86737   12.73373    2.29162
      H1   -14.03912   12.48438    1.33903
       H   -19.95538    9.89439    2.26483
       O   -19.87987    9.79903    3.21180
      H1   -19.18646    9.11473    3.36640
       H   -10.60950    7.55348    5.57460
       O   -10.75443    6.51983    5.69152
      H1   -11.69776    6.25571    5.58303
       H   -18.22438    7.25065    4.04187
       O   -18.20896    7.91068    4.77938
      H1   -17.25776    8.03486    4.85766
       H   -14.62193   10.01937    1.44567
       O   -14.38856   10.41811    0.54916
      H1   -15.20082   10.50965    0.07058
       H   -11.95315    4.47492    2.23897
       O   -12.62814    5.11194    2.10457
      H1   -13.33752    4.65283    1.66803
       H   -11.92751   14.19819    9.04370
       O   -11.31145   14.37432    9.75079
      H1   -10.63836   13.65066    9.54529
       H   -16.07465   16.98058    2.18306
       O   -15.96354   15.99595    2.25010
      H1   -15.67587   15.73864    1.34624
       H   -17.98944   12.30129    4.08120
       O   -18.62492   11.90690    4.67187
      H1   -18.89344   11.11082    4.14363
       H   -10.09984   13.75112    4.56738
       O    -9.80296   14.12342    3.69266
      H1   -10.66692   13.97307    3.24574
       H   -11.80346   12.58531    5.54569
       O   -11.07913   13.07720    5.86472
      H1   -10.42029   12.43459    6.15411
       H   -18.58693   13.30381    9.21604
       O   -17.86019   13.22171    8.56132
      H1   -18.15187   13.78044    7.81437
       H    -9.83291   10.59059    2.87369
       O   -10.60343   10.00635    2.76119
      H1   -10.15640    9.39644    2.14097
       H   -17.01850    7.46876    8.20972
       O   -17.18426    6.54382    8.03065
      H1   -18.17798    6.48853    7.83942
       H   -12.97168    5.18644    3.86488
       O   -13.08307    5.42129    4.81691
      H1   -13.23152    4.58315    5.20620
       H   -12.18409    8.71997   10.67283
       O   -11.71931    8.05375   10.09781
      H1   -10.86336    7.93736   10.58545
       H   -11.00130   12.06091   -0.73005
       O   -11.74829   12.31471   -0.21552
      H1   -12.54052   12.47717   -0.77057
       H   -14.65324   13.48673    5.59473
       O   -15.22629   12.93415    6.17097
      H1   -15.03095   11.99409    6.02295
       H   -13.47963    7.38260    1.87713
       O   -14.23482    7.99326    2.07952
      H1   -15.04250    7.57048    1.72957
       H   -14.40568    6.75287    4.84960
       O   -15.19348    7.31563    4.76257
      H1   -15.04451    7.77469    3.93399
       H   -14.81062    9.02415    5.53231
       O   -14.52145    9.92192    5.72453
      H1   -13.86968   10.17898    5.03286
       H   -15.26797   15.84313    8.40586
       O   -15.69413   15.62635    9.25723
      H1   -15.17019   16.06276    9.95069
       H   -10.81387   15.86242    6.25265
       O   -11.45924   16.26845    5.71618
      H1   -11.85518   15.46010    5.28284
       H   -18.14470   15.31662    6.08829
       O   -18.77772   14.75695    6.54497
      H1   -19.24475   15.37884    7.07308
       H    -9.54360   11.63626    8.13056
       O    -9.11358   11.67716    7.21417
      H1    -9.41202   10.85663    6.86133
       H    -9.33053   11.31618   10.21260
       O    -9.95545   11.98148    9.79371
      H1   -10.80752   11.60227    9.93979
       H    -6.28930   10.31217    7.59286
       O    -6.53411   11.21083    7.47669
      H1    -7.50752   11.13157    7.23727
       H   -11.80006    5.94634    0.37767
       O   -11.41908    6.59964   -0.19674
      H1   -10.70230    7.08032    0.31974
       H   -17.00278   10.56956   -1.58355
       O   -16.33710   11.25822   -1.37900
      H1   -16.80635   12.09690   -1.48503
       H   -15.69094    6.14091    0.36875
       O   -16.19794    6.87088    0.76864
      H1   -16.53336    7.34422   -0.03700
       H   -12.78010    4.39424    7.54424
       O   -13.14373    3.60937    7.09480
      H1   -13.08880    2.92167    7.81090
       H   -11.37511   13.68417    0.49334
       O   -11.33644   14.52324    1.03833
      H1   -10.47094   14.84235    1.12097
       H   -13.04229   12.29692    9.95728
       O   -12.74518   11.52197   10.42331
      H1   -13.08491   10.81937    9.81357
       H   -14.48594   14.02850    8.88197
       O   -13.74404   13.57602    8.51039
      H1   -14.09740   13.22735    7.67173

