156
frame 9 | Written by MDAnalysis XYZWriter (release 2.4.3)
       H    18.35842  -10.03789   12.62532
       O    18.78278  -10.88246   12.41357
      H1    18.60666  -11.50311   13.20371
       H    15.36379  -12.92404   11.84898
       O    15.17989  -13.38067   12.63902
      H1    15.57596  -12.81132   13.36457
       H    12.97863  -16.02281   12.35283
       O    12.79751  -16.11741   11.40828
      H1    11.95642  -16.58776   11.26571
       H     7.69989  -17.28951   18.14994
       O     8.59075  -16.93067   18.17978
      H1     8.44955  -16.12670   17.63130
       H     9.32942  -13.42345   13.29949
       O     9.70624  -14.21617   13.67521
      H1     9.12026  -14.49061   14.41418
       H    16.59151  -14.14996   17.29495
       O    16.58718  -14.86818   17.94835
      H1    17.47182  -15.29445   17.83479
       H    13.76869   -6.34044   19.35915
       O    13.83915   -7.12914   19.88557
      H1    14.76816   -7.39042   19.70866
       H    12.40591  -14.36069   15.04681
       O    11.85688  -13.64864   15.47474
      H1    11.04607  -13.88395   15.04347
       H    19.37444  -15.14488   14.90609
       O    19.26345  -15.87969   15.50271
      H1    19.83701  -16.61350   15.16348
       H     5.23104  -15.00501   20.12148
       O     6.08409  -15.02987   19.70679
      H1     6.12501  -14.38368   18.93007
       H    11.87051  -12.21714   14.02525
       O    12.04156  -11.29107   13.83107
      H1    11.82490  -11.12756   12.90637
       H    16.90129  -17.13173   14.31960
       O    16.95446  -17.62179   13.49188
      H1    17.87457  -17.44764   13.24343
       H    10.43638  -16.99166   13.40886
       O    11.28924  -17.30330   13.75775
      H1    11.39259  -18.24634   13.66667
       H    13.74924  -11.10076   14.54588
       O    14.60689  -10.94870   14.91538
      H1    14.59330  -10.18051   15.50220
       H     8.30328   -8.89911   13.73130
       O     8.88366   -8.27735   13.28709
      H1     9.06607   -8.65177   12.40056
       H    11.84165   -7.24018   14.39725
       O    12.32695   -7.33622   13.52090
      H1    12.21596   -8.22098   13.19949
       H    17.78570  -17.86703   19.31211
       O    18.25901  -18.09638   18.48540
      H1    19.22515  -18.19065   18.82331
       H    10.40250  -11.33352   15.43498
       O    10.02770  -11.14733   16.31002
      H1     9.89522  -11.98556   16.81937
       H    10.64924   -9.97150   17.35944
       O    11.29508   -9.43935   17.88268
      H1    11.35543   -9.90209   18.70081
       H     9.55965  -12.16366   18.89168
       O     9.65187  -12.97302   18.34591
      H1    10.61249  -13.28255   18.44742
       H    14.95173   -7.45618   15.22598
       O    15.08880   -6.89166   14.45588
      H1    14.20865   -6.96770   14.03444
       H    12.90210   -4.13141   19.23161
       O    13.73147   -4.56888   18.97978
      H1    14.51026   -4.11722   19.21307
       H    16.98196   -7.52579   18.86787
       O    16.39250   -7.92524   19.54396
      H1    16.27336   -8.87389   19.37145
       H    15.25987  -12.85873   15.83251
       O    16.18514  -13.13728   16.01263
      H1    16.70816  -12.36655   15.85057
       H    18.84404  -10.72595   15.81248
       O    17.93032  -10.93447   15.51702
      H1    17.60102  -10.11226   15.06957
       H    13.10336  -12.30718   18.96848
       O    13.48754  -11.71680   19.65391
      H1    12.69535  -11.27583   19.96393
       H     5.55324  -11.10928   18.22729
       O     6.03909  -10.87687   17.40061
      H1     6.61315  -10.17418   17.67625
       H    19.09343  -12.76348   14.57120
       O    18.98095  -13.42152   13.87951
      H1    18.23089  -14.01636   13.94762
       H    12.28146  -11.31157   10.19170
       O    12.35442  -10.79918   10.97823
      H1    13.29022  -10.77753   11.09558
       H     7.81911  -15.89693   15.40089
       O     8.25434  -15.07808   15.73416
      H1     7.59126  -14.54711   16.24883
       H    11.24639   -7.13183   16.34141
       O    10.92717   -6.59370   15.61047
      H1    11.20214   -5.70911   15.87965
       H    14.79038  -15.50621   14.96699
       O    13.97885  -14.99887   14.55416
      H1    14.41038  -14.46131   13.94767
       H    14.60897  -10.76661   18.91388
       O    15.37818  -10.18972   18.56160
      H1    16.26744  -10.61974   18.76481
       H    14.47260   -9.15431   17.27959
       O    13.92211   -8.92685   16.48041
      H1    12.98384   -9.11566   16.72326
       H     8.25974  -11.49718   13.40889
       O     8.28781  -12.06812   12.64701
      H1     7.45714  -12.58203   12.73400
       H    12.71427  -14.68121   18.23608
       O    12.23892  -13.84059   18.13983
      H1    12.10597  -13.77369   17.15982
       H     9.91936  -17.92353   17.03273
       O    10.46772  -18.13824   16.29871
      H1    10.72574  -17.30530   15.86164
       H    14.68503  -10.14073   13.29710
       O    14.62286  -10.01367   12.28970
      H1    15.41791   -9.53298   12.02046
       H    12.41333  -14.08203    9.42853
       O    12.86339  -13.51584   10.04107
      H1    13.01763  -14.11938   10.72927
       H    16.14126  -14.72917   12.32231
       O    16.79617  -15.42018   12.06606
      H1    16.52034  -16.22133   12.61590
       H     8.78334   -5.25892   19.52973
       O     8.77490   -5.97014   18.83476
      H1     8.81123   -5.48268   18.02202
       H    15.78631  -16.07620   16.53493
       O    15.95893  -16.51009   15.67401
      H1    15.95638  -17.39481   15.98305
       H    12.05801   -3.41462   16.86516
       O    12.60262   -4.10540   16.59666
      H1    13.16241   -4.20647   17.40354
       H    18.19445   -7.92240   13.97978
       O    17.43732   -8.36609   14.38027
      H1    16.65314   -7.85724   14.14498
       H     7.08278   -8.32589   18.05950
       O     7.74560   -8.96958   18.20263
      H1     8.60464   -8.52208   18.14107
       H     6.25241  -12.75532   17.31790
       O     6.34545  -13.70222   17.29935
      H1     5.53229  -14.00229   16.84919
       H    15.77042   -5.68216   15.61693
       O    16.27717   -5.05387   16.19450
      H1    17.01604   -4.89015   15.62725
       H     8.32026  -10.53859   15.48141
       O     7.74165  -10.39005   14.70962
      H1     6.81012  -10.42085   15.02495
       H     6.79434   -6.48576   14.68234
       O     7.65155   -6.35193   15.12775
      H1     8.37001   -6.81214   14.61931
       H    18.29271  -10.79735   20.17609
       O    18.09038  -10.82002   19.22227
      H1    18.48669  -10.00432   18.89688
       H    18.76886   -7.28741   17.34142
       O    18.14780   -6.66750   17.73994
      H1    17.51350   -6.41305   17.05801
       H    14.46490  -19.08326   17.31060
       O    14.08897  -18.69112   18.07995
      H1    13.76948  -17.80101   17.87494

