156
frame 10 | Written by MDAnalysis XYZWriter (release 2.4.3)
       H   -10.03515   13.69790   17.12519
       O    -9.35808   13.15689   17.41223
      H1    -9.58735   12.84165   18.30467
       H    -9.89699   11.36143   13.77656
       O    -9.90799   12.30999   14.07631
      H1    -9.02628   12.60605   13.91334
       H   -11.40743   14.82952   15.06959
       O   -11.76458   14.30605   14.30202
      H1   -11.14288   13.55464   14.10864
       H   -11.42143   15.17538   18.79212
       O   -12.25395   14.71042   18.82667
      H1   -12.47268   14.35170   17.96778
       H   -12.85158   12.81696   16.89257
       O   -13.23784   12.96687   16.00775
      H1   -12.58152   13.35819   15.37460
       H    -9.78089   16.61740    6.94056
       O    -9.69712   15.89334    7.56870
      H1    -9.64710   15.14808    6.95017
       H   -16.31264   13.63359   14.30708
       O   -15.81205   14.50931   14.17966
      H1   -15.64315   14.78833   15.09613
       H    -5.43204   15.80496   12.53194
       O    -5.77695   15.34697   13.31652
      H1    -6.61214   14.95401   13.05542
       H   -10.19431   16.66978   12.02262
       O   -10.04495   15.72390   12.14477
      H1   -10.63949   15.28665   11.48093
       H   -10.61929   19.35987    7.22349
       O    -9.84929   18.75025    7.31997
      H1    -9.50387   18.83011    6.41038
       H    -7.32794   14.33632    7.09368
       O    -7.19593   15.20758    6.68811
      H1    -7.92791   15.65200    7.18967
       H   -13.22034   17.12578    9.22622
       O   -13.95253   17.81348    9.40199
      H1   -14.21525   17.66068   10.30624
       H    -9.50778   18.49412   18.17578
       O    -9.15333   17.90856   18.87226
      H1    -8.56982   17.32895   18.39266
       H   -11.61996   18.42061   17.22633
       O   -12.30473   17.78911   17.61982
      H1   -12.02649   17.74229   18.54718
       H    -8.84687   14.36249   12.55615
       O    -8.09730   13.93724   13.06091
      H1    -7.96276   13.16910   12.44119
       H   -16.26302   17.22620   17.02643
       O   -16.63660   16.96707   16.21915
      H1   -16.55790   17.74311   15.58444
       H   -13.77079   15.49180   11.52620
       O   -14.56424   15.85168   11.96539
      H1   -14.81759   15.14986   12.63921
       H    -4.84117   14.54551   18.02895
       O    -4.47034   14.04990   17.30077
      H1    -3.71848   13.65781   17.63071
       H    -1.25024   15.29288   18.43132
       O    -1.06478   16.16067   18.11314
      H1    -0.12612   16.14901   17.86376
       H   -13.76723   11.39896   14.90604
       O   -14.13560   10.52700   14.75505
      H1   -14.21736   10.39633   13.80474
       H    -7.04589    9.95472   17.87870
       O    -7.56941    9.17837   17.92918
      H1    -7.95518    9.39342   18.83882
       H    -6.61012   11.78036   13.10822
       O    -7.23035   11.48858   12.39562
      H1    -6.63422   11.53799   11.59070
       H   -14.46874   17.69316   12.27756
       O   -14.48996   18.66340   12.40594
      H1   -13.66802   18.87878   12.86974
       H   -10.17316   16.38240   16.30467
       O   -10.90599   15.72266   16.39146
      H1   -11.60141   16.27691   16.80999
       H   -12.07236   14.53600   12.33809
       O   -12.27489   14.18279   11.49209
      H1   -12.57667   13.28690   11.70843
       H   -14.01719   14.76561   19.50453
       O   -15.02850   14.74691   19.73692
      H1   -15.03557   15.71234   19.84987
       H    -8.35879   17.58227   14.94561
       O    -9.30269   17.77262   15.00613
      H1    -9.61609   18.10538   14.13123
       H   -12.42113   10.89760   18.11955
       O   -12.76013   11.76410   18.36018
      H1   -12.08595   12.11004   18.93434
       H    -5.58878   18.58058    7.43566
       O    -6.58278   18.48162    7.52794
      H1    -6.92180   19.39415    7.66721
       H   -12.66740   14.83126    8.63280
       O   -12.31761   15.68786    8.49047
      H1   -11.33342   15.57882    8.27916
       H    -1.22847   15.12579   16.62741
       O    -1.42532   14.55761   15.85248
      H1    -2.11277   15.11562   15.33765
       H    -9.57858   11.10521   15.99173
       O    -9.45687   10.21688   16.28514
      H1    -8.76441   10.14589   16.97542
       H    -8.24170   15.12960   16.82153
       O    -7.79561   15.94241   17.13844
      H1    -7.31971   16.36385   16.40509
       H    -3.02306   17.08185   11.56451
       O    -2.24194   17.19729   12.10302
      H1    -1.99447   18.13327   12.09194
       H    -1.12624   19.29624   18.94085
       O    -1.91579   18.72230   18.69431
      H1    -1.65093   17.80790   18.60053
       H    -8.28489    8.82572   13.74901
       O    -8.87059    9.57367   13.55191
      H1    -8.23791   10.19988   13.11361
       H   -15.87392   18.53196   13.66803
       O   -16.71161   18.74905   14.04344
      H1   -17.37488   18.27454   13.52998
       H    -3.80796   12.02138   14.55834
       O    -3.31538   11.29185   14.93824
      H1    -2.42742   11.61115   15.08200
       H    -4.21934   15.78919   10.07473
       O    -4.63863   16.07766   10.87028
      H1    -5.20567   16.84001   10.53559
       H    -9.53738   18.88666   11.80221
       O   -10.16931   18.49362   12.41351
      H1   -10.76699   19.15641   12.69609
       H    -2.22056   11.78539   18.60715
       O    -3.15759   11.87957   18.77758
      H1    -3.71157   11.32007   18.16854
       H    -2.46561   19.23498   17.03203
       O    -2.68702   19.22805   16.06734
      H1    -2.62006   18.28560   15.80339
       H    -5.62830   13.60149   14.22234
       O    -5.57631   12.61818   14.35072
      H1    -5.85710   12.45131   15.25138
       H    -6.45816   16.79386   14.31108
       O    -6.73256   17.21577   15.13037
      H1    -6.04220   17.80852   15.50633
       H    -6.14796   11.97079    9.62249
       O    -5.53647   11.57464   10.22287
      H1    -5.31525   10.65104    9.96464
       H    -4.93769   18.71263   10.27739
       O    -5.84325   18.35233   10.12095
      H1    -6.01103   18.31789    9.15623
       H    -6.51235   14.29774   10.81583
       O    -7.08692   14.26191   10.02524
      H1    -7.89574   14.75149   10.28727
       H    -4.92854   19.45704   19.21605
       O    -5.33438   18.61640   18.92535
      H1    -5.49976   18.83015   17.97754
       H    -2.91202   16.71459   13.71321
       O    -3.30816   16.63808   14.60336
      H1    -3.96746   15.96561   14.52219
       H    -9.68148   12.12673   10.97589
       O   -10.00848   11.97051   10.11724
      H1   -10.94227   11.82686   10.36274
       H    -5.83785   12.94586   17.07120
       O    -6.43034   12.19409   16.95547
      H1    -7.31262   12.57486   17.03286
       H    -6.75081   15.40604   18.68324
       O    -6.07053   14.99346   19.25895
      H1    -6.39815   14.09996   19.62734

