156
frame 1 | Written by MDAnalysis XYZWriter (release 2.4.3)
       H     7.08107   -8.03989  -14.72751
       O     6.47876   -8.68798  -14.26380
      H1     7.06874   -9.32767  -13.78105
       H     3.15891   -5.75595   -5.84219
       O     3.41652   -4.87208   -6.23750
      H1     3.61906   -5.16733   -7.11853
       H     8.09434   -5.83421  -14.46985
       O     8.67223   -6.47278  -14.01580
      H1     8.66330   -6.15790  -13.08174
       H     6.45908   -5.13270  -15.92718
       O     6.81947   -4.85556  -15.10267
      H1     6.07809   -4.36974  -14.72098
       H     3.22627    3.05165  -10.64918
       O     3.82344    2.27055  -10.62910
      H1     4.41014    2.38946   -9.85870
       H    10.65682   -8.84649  -11.46716
       O     9.77956   -8.51856  -11.37366
      H1     9.85589   -7.60920  -11.19112
       H    10.74042   -5.95507   -9.72761
       O    11.34610   -5.86475   -9.00647
      H1    11.43705   -6.64063   -8.47852
       H     1.63537   -6.51643  -12.62825
       O     1.31823   -5.58467  -12.83881
      H1     0.68698   -5.67087  -13.60381
       H     6.87055   -0.48008  -18.44625
       O     6.11380   -0.11058  -18.92965
      H1     5.51410    0.21013  -18.21821
       H     2.19980   -8.40438  -12.02948
       O     2.43136   -7.58310  -11.63067
      H1     3.37562   -7.42562  -11.65148
       H     8.46184   -1.07564  -16.13058
       O     8.14455   -0.30874  -16.65012
      H1     8.02966    0.31553  -15.94654
       H     5.43514   -5.31155  -10.86342
       O     4.64563   -5.70671  -11.28865
      H1     3.84523   -5.21855  -10.99946
       H    11.92739   -4.07745  -14.81698
       O    12.19891   -4.78285  -15.37630
      H1    11.88590   -5.58904  -14.88790
       H    10.43041    1.86583   -7.38649
       O     9.50222    2.26439   -7.23421
      H1     8.89812    1.76520   -7.86923
       H     5.32014    2.86376   -7.24046
       O     4.81583    2.54119   -8.04848
      H1     4.24539    1.80256   -7.85000
       H     4.70037   -1.36989   -9.94757
       O     5.23776   -0.70274  -10.36003
      H1     4.91239   -0.54046  -11.23713
       H     7.44857   -5.54500   -7.62995
       O     7.60712   -4.62297   -7.76463
      H1     7.02215   -4.22990   -7.10556
       H     5.84701    0.88665  -13.01120
       O     5.49507    0.11290  -13.50899
      H1     6.23653   -0.31291  -13.92158
       H    10.00747   -2.73452  -11.91233
       O    10.36182   -3.49328  -12.35474
      H1    10.26109   -3.28361  -13.32072
       H    13.38218   -1.10284  -14.28453
       O    12.78610   -1.41024  -14.95435
      H1    13.30125   -1.24349  -15.77039
       H     9.63974   -1.84059  -14.41854
       O    10.29999   -2.33243  -14.86728
      H1    11.02077   -1.71380  -14.99509
       H     5.66281    2.45102  -11.16170
       O     6.21585    2.43881  -11.93640
      H1     7.07338    2.68949  -11.50987
       H     4.29296   -3.36950  -13.52137
       O     5.21928   -3.20242  -13.65407
      H1     5.36205   -2.67340  -14.41928
       H     6.98991   -4.67597   -9.47941
       O     6.90887   -4.66856  -10.43696
      H1     7.03555   -3.80854  -10.78400
       H    13.19654   -1.36949  -11.28976
       O    12.59030   -1.52158  -10.45811
      H1    11.65576   -1.35256  -10.66691
       H     2.17538   -3.00055  -11.71715
       O     2.58703   -3.23877  -12.58575
      H1     2.13609   -4.06831  -12.79864
       H    10.66558   -4.54502   -8.14177
       O    10.25255   -3.92774   -7.54211
      H1     9.34942   -4.17907   -7.52461
       H     9.07745    3.86253  -11.89474
       O     8.75320    3.21127  -11.26767
      H1     8.74381    3.73480  -10.40186
       H     2.89005    0.84390  -11.36267
       O     2.57641    0.04448  -11.81472
      H1     2.42873    0.24904  -12.73792
       H     4.99246   -1.58294  -16.25896
       O     5.48309   -2.40810  -16.26875
      H1     6.33241   -2.08401  -16.62251
       H     7.65494   -8.04068   -7.65408
       O     6.86652   -7.51551   -7.71043
      H1     6.37148   -7.98531   -8.36822
       H     3.63452    0.58401  -14.13321
       O     2.82458    0.90062  -14.57314
      H1     2.56530    1.68263  -14.05762
       H     6.89849    0.69670   -9.78518
       O     7.17038    1.45856   -9.28291
      H1     6.44405    1.73179   -8.68043
       H     9.61810   -1.22807   -9.91181
       O     9.76667   -1.19465  -10.87822
      H1     9.81672   -0.26783  -11.07902
       H     2.21994    0.36297   -6.72920
       O     2.73457    0.46560   -7.55236
      H1     2.11851    0.80059   -8.23561
       H     1.46533   -2.30365  -13.61969
       O     0.86976   -1.79264  -14.20238
      H1    -0.01781   -2.12092  -14.05831
       H     8.16036   -1.12883  -12.86553
       O     8.50495   -0.71255  -13.65171
      H1     9.17374   -0.11485  -13.33586
       H     9.75244    1.84923  -12.24871
       O    10.19237    1.08123  -12.60875
      H1    10.86453    1.33475  -13.26476
       H    10.69780   -0.54224   -7.48800
       O    10.30014   -1.20640   -8.07517
      H1    10.21348   -2.06990   -7.59830
       H     9.10863   -3.10907  -16.16236
       O     8.19678   -3.01480  -16.52193
      H1     7.76414   -3.56992  -15.80932
       H     4.84031   -3.58330   -5.88182
       O     5.61798   -3.03753   -6.13919
      H1     5.84402   -2.43258   -5.42716
       H     0.64420   -1.43675   -9.97263
       O     1.52045   -1.82673  -10.24358
      H1     1.73726   -1.07686  -10.91617
       H    11.80973   -7.48121  -13.69104
       O    11.33185   -7.16701  -14.47646
      H1    10.44026   -6.99947  -14.09225
       H     2.73080   -0.92292  -17.14032
       O     3.49510   -0.38927  -16.97241
      H1     3.24448    0.15210  -16.20033
       H    12.25302    0.44965  -14.81192
       O    12.07601    1.37063  -14.58687
      H1    11.80249    1.80813  -15.38000
       H     6.62012   -1.66408  -11.14249
       O     6.92920   -2.13222  -11.87974
      H1     6.20599   -2.41149  -12.43956
       H     2.56643   -3.17018  -17.34008
       O     3.14738   -3.97010  -17.22500
      H1     4.03382   -3.53627  -17.41908
       H     9.91282   -5.10156  -11.70876
       O     9.47720   -5.75840  -11.17823
      H1     8.63528   -5.39508  -10.83338
       H     4.42968   -6.12131  -13.26766
       O     4.18315   -6.79177  -13.94193
      H1     4.95152   -7.30537  -14.15125
       H     3.69792   -1.76501   -7.54648
       O     3.31807   -2.36636   -8.21897
      H1     2.58875   -1.90178   -8.63476
       H     7.93168   -3.39413  -18.40091
       O     7.88514   -3.93360  -19.19531
      H1     7.36954   -3.37595  -19.78889
       H     3.19500   -4.00994   -8.79914
       O     2.72013   -4.87442   -8.98110
      H1     1.79176   -4.62229   -8.98809

