156
frame 3 | Written by MDAnalysis XYZWriter (release 2.4.3)
       H   -11.48750    9.88354    2.98602
       O   -12.34440   10.29268    3.22997
      H1   -12.77965   10.55223    2.40994
       H   -16.09457   12.10222   12.39015
       O   -16.97031   11.94508   12.74615
      H1   -17.57138   12.42074   12.16516
       H    -8.96521   14.65121   14.54224
       O    -8.08753   14.32413   14.34190
      H1    -8.23218   13.38506   14.54097
       H   -18.24247   12.08450    5.87147
       O   -19.15758   11.86306    6.12832
      H1   -19.18552   12.05962    7.07281
       H    -9.75778    7.78205    7.33829
       O    -8.80756    7.57076    7.34471
      H1    -8.76165    6.93351    8.02209
       H   -14.14482    9.75771    6.93183
       O   -13.73136   10.08860    7.72167
      H1   -12.79576    9.96236    7.51456
       H   -11.16815    8.00969   10.55023
       O   -11.49959    7.59950    9.70292
      H1   -12.46836    7.78471    9.76024
       H   -14.57736   12.30573   15.78378
       O   -13.96426   12.20946   15.07326
      H1   -13.68439   13.03700   14.77430
       H    -7.43880   15.54224    5.34851
       O    -8.42499   15.37286    5.23875
      H1    -8.67340   14.66545    4.56796
       H   -14.83396    7.48687    9.26808
       O   -14.14034    7.98386    9.72713
      H1   -14.09903    8.79635    9.22245
       H    -7.14724   17.85000   11.71400
       O    -7.54347   17.17535   12.20877
      H1    -7.04054   16.39821   11.97228
       H   -17.31822   10.30144    8.49317
       O   -17.66405    9.69590    7.84150
      H1   -17.36442   10.07284    6.99034
       H   -10.27527   16.42671   10.25114
       O    -9.38655   16.58776    9.90554
      H1    -8.85872   16.86263   10.65675
       H    -8.24121   12.04383    7.14856
       O    -7.66047   12.78714    6.88985
      H1    -8.32101   13.41941    6.54957
       H   -13.03634   16.60781    8.03960
       O   -12.60919   17.35680    8.44957
      H1   -12.35513   17.02727    9.31536
       H   -17.33830   16.19334    9.75080
       O   -17.76266   16.96576   10.13954
      H1   -18.71429   16.92458    9.83474
       H    -6.08459    9.84256    9.78409
       O    -6.75626   10.40666   10.21916
      H1    -6.68660   10.14116   11.16097
       H   -11.81128    8.08375    7.44170
       O   -11.25189    8.64793    6.89236
      H1   -11.82677    8.81068    6.15718
       H    -6.99004   14.47989   12.66109
       O    -6.49687   14.55692   11.79855
      H1    -6.96737   14.12124   11.09594
       H   -16.58471   15.68355    5.96398
       O   -17.19654   15.45906    5.30732
      H1   -17.22678   16.29165    4.77471
       H   -13.35272   11.05660   13.75302
       O   -12.99934   10.31439   13.21763
      H1   -13.85016    9.86445   13.13506
       H   -11.49421   13.46280   12.36405
       O   -12.09885   14.09529   12.72298
      H1   -11.60472   14.44429   13.44026
       H   -14.27913   14.66894    6.90870
       O   -14.58179   15.49789    7.31030
      H1   -15.33228   15.19296    7.85393
       H    -9.18682   16.88500    4.42672
       O    -9.71160   17.64568    4.18434
      H1   -10.30882   17.77619    4.92659
       H   -13.39332   10.40733   11.50504
       O   -13.73441   10.65194   10.65680
      H1   -14.60050   10.25662   10.62195
       H   -11.87338   15.72253   11.71795
       O   -11.86721   16.54413   11.25075
      H1   -11.45847   17.26321   11.76158
       H   -10.05008   11.16621   11.24976
       O   -10.34507   12.06726   11.54129
      H1   -10.57350   12.43925   10.66431
       H   -14.79521    8.50270   11.79229
       O   -14.96394    8.54179   12.75462
      H1   -14.72600    7.66938   13.07042
       H   -10.24133   15.71078    8.26286
       O   -10.35138   15.63401    7.31006
      H1    -9.48043   15.63274    6.93379
       H   -10.19757   12.91913    3.84725
       O    -9.35764   13.23961    3.47680
      H1    -9.54499   13.93716    2.85342
       H   -12.00303   11.91177    4.46548
       O   -11.49607   12.48111    5.06419
      H1   -10.94165   11.83846    5.60007
       H   -19.14446   13.65827    9.15421
       O   -18.55553   13.61566    8.36612
      H1   -19.03477   14.08325    7.61354
       H    -9.23636    9.76269    3.63723
       O    -9.97872    9.30833    3.18593
      H1    -9.79032    8.32035    3.41196
       H   -11.55601   18.04192    6.85704
       O   -11.21804   18.69097    6.26579
      H1   -10.58159   19.17737    6.78558
       H   -14.21867   12.25769   11.24280
       O   -14.71095   13.01288   11.70334
      H1   -13.94382   13.38679   12.22032
       H   -15.06635   19.47937    9.34832
       O   -14.17794   19.38080    9.70026
      H1   -13.86068   18.65569    9.13675
       H   -10.34615   18.82323    9.25822
       O   -10.18341   19.78796    9.15738
      H1    -9.29729   19.95782    9.51787
       H   -11.73138    9.25002   12.75294
       O   -11.22100    8.47993   12.41088
      H1   -10.34953    8.69334   12.68452
       H   -15.48062   11.99037    5.70141
       O   -16.31230   11.43475    5.69646
      H1   -16.70327   11.47768    4.82498
       H   -14.42103    8.57592    5.17550
       O   -13.49300    8.85343    5.25613
      H1   -13.17245    9.20540    4.38954
       H   -17.07249   14.14909    9.15585
       O   -16.27581   14.65110    9.25144
      H1   -15.81600   14.28892   10.02858
       H   -12.76895   12.83947    6.48854
       O   -13.57984   12.88699    6.99645
      H1   -13.67618   12.01774    7.32348
       H    -7.44418   12.94455    8.48437
       O    -7.45452   12.96320    9.45410
      H1    -7.59624   12.07779    9.73642
       H    -7.17623   14.62549    8.53549
       O    -7.33939   15.52864    8.31569
      H1    -8.14486   15.76481    8.84091
       H   -10.17220   11.84115    8.10907
       O    -9.80776   11.34307    7.35911
      H1   -10.10218   10.43126    7.46345
       H   -10.63757   18.07057   13.58667
       O   -10.53812   18.44946   12.69030
      H1   -10.97048   19.31198   12.79171
       H    -5.56987   16.68095    5.42165
       O    -5.89414   15.89647    5.87895
      H1    -6.35955   16.19010    6.71912
       H    -8.30648    9.66597   10.36320
       O    -9.27211    9.51990   10.50873
      H1    -9.49284    8.84705    9.89777
       H    -7.09596    9.69652    3.97176
       O    -7.56395    9.96169    4.82007
      H1    -7.36545    9.33797    5.47574
       H   -12.12084   13.06908    8.53274
       O   -11.16919   13.29226    8.53254
      H1   -11.13680   14.05642    7.95722
       H   -16.87419   11.22640   10.55559
       O   -16.37620   10.95287    9.77181
      H1   -15.90906   11.76541    9.42144
       H    -6.03366   12.93507    5.17077
       O    -5.62271   12.27497    4.59057
      H1    -6.20718   11.53977    4.68040

