156
frame 4 | Written by MDAnalysis XYZWriter (release 2.4.3)
       H    -7.20561    8.84373  -17.67394
       O    -8.08761    9.28956  -17.50475
      H1    -8.40101    8.79105  -16.77535
       H    -6.98305    5.30697  -18.28006
       O    -6.27014    5.51484  -17.65221
      H1    -5.54711    5.52414  -18.25275
       H   -11.01866    9.62930  -12.73203
       O   -10.76480    8.80367  -13.21251
      H1   -11.49347    8.17544  -13.33508
       H   -10.24407   -1.12161  -11.09867
       O   -10.46435   -0.58923  -11.87234
      H1   -11.11645   -1.10197  -12.34832
       H   -11.54034    7.53973  -17.65880
       O   -10.59984    7.23182  -17.65147
      H1   -10.22655    7.61277  -18.43254
       H    -9.93896   -4.05802  -16.47019
       O   -10.27040   -4.93374  -16.58032
      H1   -10.71364   -4.88865  -17.45437
       H   -16.12925    0.55672  -13.66776
       O   -15.33685    0.17462  -13.27854
      H1   -14.73518    0.10737  -14.03569
       H    -9.66712    0.78096  -17.35084
       O    -9.53187   -0.19040  -17.33939
      H1    -9.81094   -0.42920  -18.21262
       H   -14.18198    1.74186  -15.20497
       O   -14.75351    2.15719  -15.86810
      H1   -15.12982    2.88822  -15.33425
       H   -15.88260    6.48687  -16.56345
       O   -15.76661    5.52805  -16.58393
      H1   -14.87711    5.29544  -16.85472
       H   -17.42887    0.45556  -17.19108
       O   -17.20889    0.73265  -16.31055
      H1   -16.33073    1.10518  -16.37742
       H   -10.91534    5.65862  -18.46283
       O   -11.11625    4.82978  -18.89606
      H1   -11.98511    4.59691  -18.53379
       H   -10.40082   -4.46750  -19.80825
       O   -10.99791   -4.97970  -19.29319
      H1   -10.40304   -5.73482  -19.28982
       H   -12.84119    6.99445  -15.89838
       O   -13.12527    7.35894  -16.74792
      H1   -13.30560    8.32827  -16.53597
       H    -6.06179    7.35460  -17.88114
       O    -5.68068    8.16900  -18.26286
      H1    -5.10382    8.58500  -17.59636
       H    -6.21417    6.03578  -15.50967
       O    -5.90813    5.71895  -14.63583
      H1    -5.08752    5.24464  -14.72395
       H   -13.44250   -0.06146  -10.32780
       O   -12.57922   -0.25196   -9.99133
      H1   -11.99006   -0.06467  -10.82261
       H   -10.88919    5.90116  -11.73987
       O   -10.16028    6.21236  -12.28311
      H1    -9.59055    6.62071  -11.63808
       H   -13.57266   -2.20761  -12.70218
       O   -12.77010   -1.82560  -13.08212
      H1   -13.06598   -1.40348  -13.91590
       H   -11.60698    4.46251  -10.42710
       O   -11.99419    3.80788  -10.99220
      H1   -12.77543    4.19493  -11.36147
       H    -7.22129    0.80508  -12.84439
       O    -7.62642   -0.05554  -12.96554
      H1    -8.56968    0.03849  -12.81747
       H    -8.48565   -2.62257  -17.66639
       O    -8.22904   -2.74247  -18.55991
      H1    -8.09288   -3.67752  -18.78749
       H    -3.90128    2.40857  -20.10892
       O    -3.15395    2.03588  -19.62373
      H1    -3.18638    2.60635  -18.85986
       H   -15.85594   -0.03264  -19.52859
       O   -14.99964    0.11923  -19.92232
      H1   -14.26900   -0.13833  -19.30080
       H   -10.85032    3.02042  -12.20591
       O   -10.08147    2.54690  -12.62033
      H1    -9.55088    3.17958  -13.13501
       H    -9.88510   10.76844  -15.41607
       O   -10.61871   10.11430  -15.56798
      H1   -10.54973    9.66946  -14.68512
       H    -9.45484    2.73036  -11.10749
       O    -9.25018    2.86656  -10.14078
      H1    -9.83365    2.16358   -9.71402
       H    -7.42232   -2.91761  -11.48955
       O    -6.97043   -2.09558  -11.29205
      H1    -7.18155   -1.50668  -12.03804
       H   -11.51083   -3.22731  -13.62648
       O   -10.73183   -3.65837  -14.07344
      H1   -11.01339   -4.53746  -14.41583
       H   -15.46021   -3.59059  -18.68916
       O   -14.64669   -3.16904  -18.92281
      H1   -14.81984   -2.75998  -19.80636
       H    -9.29870   -1.61031  -15.99487
       O    -8.94700   -2.50942  -15.78292
      H1    -9.51188   -2.82389  -14.97422
       H   -10.06365    3.22386  -17.80568
       O    -9.64944    2.54792  -17.24511
      H1   -10.29993    2.54053  -16.51419
       H    -4.40188   -1.39778  -18.93758
       O    -4.02128   -0.71226  -18.31895
      H1    -3.19931   -0.54568  -18.84136
       H   -10.97625    9.90099  -18.19799
       O   -11.21650   10.17986  -19.09487
      H1   -11.19645    9.42176  -19.68543
       H    -5.17941    0.77460  -18.70786
       O    -5.81821    1.49621  -18.46653
      H1    -5.65423    1.69163  -17.58059
       H    -8.47000    5.80561  -19.98020
       O    -8.52044    5.00516  -19.40200
      H1    -9.48285    4.81595  -19.40586
       H   -14.76733    5.52044  -11.80179
       O   -14.47305    4.77775  -12.39779
      H1   -14.81619    3.96585  -11.95475
       H   -10.34412    0.50580  -15.41708
       O   -10.84749    1.23423  -15.02749
      H1   -10.62827    1.25901  -14.08607
       H    -2.95621    5.37123  -15.49107
       O    -3.26630    4.61448  -14.98506
      H1    -2.80885    4.65746  -14.11752
       H    -4.52134    0.91364  -10.47066
       O    -4.40711    1.73813  -11.07593
      H1    -5.24749    1.95620  -11.44576
       H    -6.59438    3.65955  -16.51604
       O    -6.98007    2.76801  -16.24392
      H1    -7.84428    2.73845  -16.58683
       H    -8.65004    8.26328  -14.28628
       O    -8.66749    7.76664  -15.15364
      H1    -9.56894    7.29320  -15.13136
       H    -2.81499    2.25399  -16.88636
       O    -3.11256    3.12666  -17.10044
      H1    -3.20031    3.60021  -16.28634
       H   -12.40808   -1.14238  -18.06942
       O   -13.27896   -0.79686  -17.97386
      H1   -13.78500   -1.61168  -17.91832
       H   -13.76978    3.84967  -18.61817
       O   -13.33021    3.98824  -17.76779
      H1   -13.72176    3.31410  -17.17048
       H   -13.24324   -0.35487  -16.28420
       O   -13.10879   -0.21424  -15.34524
      H1   -12.31183    0.32449  -15.30735
       H    -3.41881    7.34612  -13.46464
       O    -4.35665    7.48926  -13.42391
      H1    -4.99483    6.89232  -13.86604
       H    -6.21641   -3.01778  -14.38711
       O    -5.69465   -3.64861  -13.90458
      H1    -4.83989   -3.36529  -14.05230
       H   -12.79466    5.94498  -14.03146
       O   -12.05877    6.36571  -14.47898
      H1   -11.28060    6.09808  -14.00457
       H   -16.25037    4.48505  -15.04272
       O   -16.02195    3.86407  -14.33239
      H1   -15.46014    4.35889  -13.71264
       H    -7.73085    2.69879  -11.14284
       O    -7.02098    2.58557  -11.76721
      H1    -7.24081    3.09898  -12.57318
       H    -7.40326    3.65214  -14.78469
       O    -7.93213    3.84681  -13.99340
      H1    -7.80055    4.79134  -13.91771

