156
frame 3 | Written by MDAnalysis XYZWriter (release 2.4.3)
       H    17.11740  -12.58671   -5.58742
       O    16.29004  -12.27526   -5.97171
      H1    16.40240  -11.31642   -6.14375
       H    18.62567   -8.94317   -8.29181
       O    18.21001   -9.75293   -7.99928
      H1    17.76235   -9.47394   -7.15780
       H    10.11765   -8.61434  -11.67751
       O     9.20013   -8.30217  -11.81857
      H1     9.33792   -7.31013  -11.91382
       H     9.96908   -5.48946  -10.09118
       O    10.82500   -5.38565   -9.53734
      H1    11.24291   -6.19842   -9.81842
       H    13.54824   -4.72234   -4.15316
       O    14.25373   -5.38802   -4.12345
      H1    13.99528   -6.17537   -4.66487
       H    16.38928  -13.62574  -15.19103
       O    15.45646  -13.66363  -14.92175
      H1    15.24915  -14.56784  -14.73882
       H    15.64634  -11.76733   -4.11126
       O    15.45636  -11.59441   -3.18046
      H1    15.25073  -10.68198   -3.00510
       H    17.06817   -4.43570  -13.91953
       O    16.90431   -5.40278  -13.85852
      H1    15.99333   -5.43641  -13.48247
       H    14.11281   -4.87276  -13.51747
       O    13.96874   -4.57416  -14.37571
      H1    12.96469   -4.61981  -14.62903
       H    11.46934  -11.84055   -8.65545
       O    10.53930  -12.15522   -8.64651
      H1    10.65441  -13.11946   -8.74993
       H    13.24241  -11.60994   -9.76003
       O    13.05828  -11.09461   -9.00993
      H1    13.89371  -10.61565   -8.93370
       H    12.07673  -11.46801   -4.81259
       O    11.62816  -10.65329   -5.05962
      H1    10.81070  -10.78914   -5.59429
       H    14.21486  -12.10598  -12.21864
       O    14.60963  -12.17382  -11.33073
      H1    15.56136  -12.00428  -11.34041
       H     9.25431   -7.75514   -5.05579
       O    10.06053   -8.15093   -5.44032
      H1     9.82812   -8.27966   -6.34272
       H     8.65695  -11.17365   -6.17990
       O     9.37010  -11.80759   -6.21024
      H1     9.55243  -11.79366   -7.21554
       H    18.66548   -9.24153  -14.96443
       O    19.12676   -9.07076  -15.80637
      H1    18.95293   -8.13368  -16.11340
       H    11.05247  -14.00353   -6.04869
       O    11.80995  -14.52171   -6.30814
      H1    11.52736  -14.92306   -7.13041
       H    12.07504   -8.40913   -4.88361
       O    12.60129   -7.82420   -4.30102
      H1    13.07009   -8.40776   -3.68890
       H    19.36460   -7.79945  -13.19463
       O    19.62933   -6.84015  -13.22814
      H1    18.80842   -6.34364  -12.96599
       H    12.35596   -8.82472   -9.37401
       O    12.28030   -7.86669   -9.14463
      H1    12.92778   -7.56935   -8.44797
       H    13.49759  -14.47539   -6.45119
       O    14.44975  -14.37220   -6.54761
      H1    14.65397  -13.49335   -6.23445
       H    14.64267   -3.73902   -7.68094
       O    14.52197   -4.66337   -7.47505
      H1    13.59154   -4.74413   -7.17991
       H    20.00074   -4.12856  -10.90979
       O    19.50137   -4.92066  -11.14218
      H1    18.61279   -4.62256  -11.28937
       H    13.56553   -7.55358   -5.94061
       O    14.22304   -7.58050   -6.65896
      H1    14.43862   -6.66499   -6.97161
       H    11.45621  -15.38312   -9.20934
       O    10.70969  -14.93766   -8.75494
      H1     9.94823  -15.41973   -9.13966
       H    17.70558   -6.95144   -6.80916
       O    18.37814   -6.42465   -7.22901
      H1    18.90744   -6.06824   -6.51373
       H    19.19983  -12.56466   -9.50359
       O    19.04076  -12.76595  -10.42528
      H1    19.12510  -13.77379  -10.46206
       H    14.87848  -14.18501   -8.27328
       O    15.26141  -14.28811   -9.15688
      H1    15.04946  -13.44499   -9.56911
       H    13.19264  -13.76683   -3.34560
       O    13.07622  -12.78335   -3.34336
      H1    13.90736  -12.35423   -3.11894
       H    10.15296  -10.86862  -10.30263
       O    10.64132  -10.40737  -11.03807
      H1    11.05493  -11.11702  -11.56484
       H    14.52141   -9.44294  -15.38186
       O    14.42953   -9.79946  -14.50274
      H1    13.87809  -10.58823  -14.63085
       H    19.09479  -15.31263   -6.65994
       O    19.70848  -14.84049   -6.11055
      H1    19.63457  -15.22421   -5.21925
       H    12.37923  -12.23596  -14.83882
       O    13.01113  -12.45749  -14.10909
      H1    13.75154  -12.69366  -14.67612
       H    16.61134  -15.28597  -10.27883
       O    16.87304  -15.97591  -10.95369
      H1    17.22708  -15.44479  -11.69219
       H    18.76241   -8.97280   -3.26225
       O    18.43394   -8.36579   -3.91312
      H1    18.31441   -7.54887   -3.38207
       H    16.87158   -7.31993  -10.08557
       O    15.91562   -7.47953  -10.32979
      H1    15.78682   -8.33483   -9.88655
       H    19.44225  -13.16521   -4.71461
       O    18.64874  -12.74893   -4.23223
      H1    18.49354  -13.39137   -3.55218
       H    13.33731   -6.91588  -12.79751
       O    12.71031   -7.65081  -12.87285
      H1    13.13293   -8.32678  -13.41966
       H    18.65578   -6.75403   -8.97042
       O    18.82276   -7.14770   -9.87723
      H1    19.17984   -6.36168  -10.37967
       H    19.50112  -10.24069  -12.97767
       O    18.93566   -9.41717  -13.03759
      H1    18.04257   -9.60685  -12.70473
       H    11.29398   -7.58150  -13.83516
       O    10.47413   -7.60967  -14.40499
      H1    10.07465   -8.46975  -14.18614
       H    18.94850  -11.67837   -7.28550
       O    19.55004  -12.42527   -7.65252
      H1    19.44310  -13.24994   -7.15446
       H    15.12907   -6.40335  -11.45013
       O    14.59111   -5.70401  -11.97635
      H1    14.42521   -4.98828  -11.36141
       H    16.38019  -10.07393   -9.06126
       O    15.53414  -10.00115   -9.47017
      H1    15.67634   -9.94027  -10.42165
       H    11.73440  -13.97874  -11.49227
       O    11.29474  -13.45791  -12.16871
      H1    11.89746  -13.52173  -12.92318
       H    15.70961   -8.67376   -6.29493
       O    16.48330   -9.22021   -6.13221
      H1    16.75422   -8.94358   -5.24122
       H    18.00370  -12.47732  -11.91662
       O    17.22348  -12.46712  -12.46315
      H1    17.36261  -13.04337  -13.23238
       H    10.19988   -7.00997   -8.29752
       O     9.33189   -7.37757   -8.05143
      H1     8.95594   -7.82944   -8.85826
       H    17.43392   -2.78998   -6.51796
       O    17.54243   -2.65367   -7.49438
      H1    17.32673   -3.52955   -7.88598
       H    16.30511   -5.19597   -9.81559
       O    16.73033   -4.36129   -9.91095
      H1    16.11192   -3.90959  -10.52024
       H    16.70609  -10.84589  -12.47509
       O    16.39589   -9.98832  -12.13572
      H1    15.81229   -9.65486  -12.81165
       H    13.67863  -14.73557  -10.11081
       O    12.92426  -15.21366  -10.48339
      H1    13.39638  -15.84685  -11.03259

