156
frame 8 | Written by MDAnalysis XYZWriter (release 2.4.3)
       H    -4.85292   -2.90203  -12.67257
       O    -4.11953   -3.12445  -12.11298
      H1    -3.33747   -2.74062  -12.42005
       H   -11.42183   -1.65025  -10.05357
       O   -10.95565   -0.83225  -10.22192
      H1   -10.87296   -0.66747  -11.15666
       H    -4.49960   -2.63291   -7.45211
       O    -4.00802   -1.84315   -7.51118
      H1    -4.33609   -1.46939   -8.34083
       H    -9.26292   -4.41158  -15.42032
       O    -9.23864   -5.29670  -15.75642
      H1    -9.78304   -5.31482  -16.55168
       H    -8.03109   -0.57533   -7.77647
       O    -8.01868   -0.83391   -8.73906
      H1    -8.95671   -1.05640   -8.94141
       H    -8.89033  -10.82311  -10.35740
       O    -8.62982  -10.16038  -11.02076
      H1    -7.66690  -10.10600  -10.79929
       H   -11.20757  -10.86995  -13.21139
       O   -11.39069  -11.39048  -13.98090
      H1   -10.61540  -11.90139  -14.16424
       H    -1.55991   -5.84997   -8.84349
       O    -2.33260   -6.42536   -9.06863
      H1    -2.98426   -5.86688   -9.55224
       H   -13.29323   -5.49588  -12.15037
       O   -13.14972   -5.39241  -11.21242
      H1   -12.62096   -4.55419  -11.16404
       H   -12.93140   -9.55246  -14.07008
       O   -13.47519   -8.91019  -13.56151
      H1   -14.20847   -9.46583  -13.23623
       H   -10.93783   -7.76763   -5.32525
       O   -11.21629   -7.51258   -4.40114
      H1   -11.63666   -6.62637   -4.40065
       H   -14.81182   -2.27706   -8.50681
       O   -14.82796   -2.83638   -9.25752
      H1   -15.06844   -2.40196  -10.08661
       H    -8.50097   -5.01209  -10.56914
       O    -8.72634   -5.81773  -10.11134
      H1    -9.47321   -6.13938  -10.60285
       H    -9.92433  -12.62602   -9.81353
       O    -9.59658  -12.17715   -8.98926
      H1    -9.71711  -12.87759   -8.32197
       H    -9.66899   -5.70445   -4.40148
       O    -8.75004   -5.37551   -4.38975
      H1    -8.46534   -5.48339   -5.27926
       H    -7.48580  -10.78625  -14.20113
       O    -6.76795  -10.22020  -13.89778
      H1    -7.15876   -9.71926  -13.13704
       H   -16.12292   -5.66821   -9.81660
       O   -16.54690   -4.96739   -9.31757
      H1   -15.82912   -4.29674   -9.23876
       H   -13.26355   -8.37401   -9.61987
       O   -13.89889   -7.64268   -9.40458
      H1   -13.62315   -6.92559   -9.99089
       H    -8.24046   -5.36301   -8.09857
       O    -7.84503   -5.45683   -7.22944
      H1    -6.94579   -5.68234   -7.35827
       H    -5.53364   -9.00348  -11.55499
       O    -5.86250   -9.60179  -10.91226
      H1    -5.25152   -9.61194  -10.18548
       H   -14.21328   -1.66780  -12.40623
       O   -13.28558   -1.92930  -12.54043
      H1   -12.87848   -1.83147  -11.66957
       H   -14.25705   -8.07401   -7.19946
       O   -15.00620   -8.05349   -6.60250
      H1   -15.53506   -7.28143   -6.73414
       H   -10.30424   -6.52232  -13.29422
       O   -10.32814   -6.45913  -12.29457
      H1   -11.20350   -6.04691  -12.16100
       H    -7.65917   -3.01978  -12.64126
       O    -7.14917   -2.17101  -12.71377
      H1    -7.46924   -1.62545  -12.01064
       H    -9.99138   -9.59346  -11.83421
       O   -10.97115   -9.48224  -11.82106
      H1   -11.07851   -8.67238  -12.33929
       H    -7.82339   -7.97419   -8.99683
       O    -7.74107   -8.23201   -8.04068
      H1    -7.57634   -7.46141   -7.52520
       H   -12.22991   -3.36696  -13.37295
       O   -11.55230   -3.99053  -13.51576
      H1   -11.90576   -4.74695  -13.93998
       H    -9.62231   -1.63317  -15.50646
       O    -9.58120   -2.53009  -15.09799
      H1   -10.44137   -2.75166  -14.71437
       H    -9.96649   -6.04795   -9.11557
       O   -10.81306   -6.30355   -8.74021
      H1   -10.53655   -7.05792   -8.12696
       H   -10.31199   -9.83084   -6.00213
       O   -10.01308  -10.29932   -5.16398
      H1   -10.80469  -10.46529   -4.69636
       H   -10.85099   -8.79657   -7.89596
       O   -10.42868   -8.47188   -7.05909
      H1    -9.50165   -8.56614   -7.26194
       H    -5.62711   -7.40980  -16.85568
       O    -6.48051   -7.48205  -16.46822
      H1    -7.07033   -6.81250  -16.78721
       H   -11.53846   -4.35426   -4.67742
       O   -11.92877   -4.73607   -3.90887
      H1   -11.80346   -4.11761   -3.21290
       H    -4.82819   -6.07043   -8.69957
       O    -5.24107   -6.49736   -7.95147
      H1    -4.55385   -6.82970   -7.31516
       H   -10.61834   -1.16200   -4.48661
       O   -10.07913   -1.03497   -5.27105
      H1    -9.65268   -1.87348   -5.56734
       H   -11.79753   -7.09717  -15.67422
       O   -11.32649   -6.66385  -14.92898
      H1   -10.47222   -6.41838  -15.36573
       H   -10.02551   -1.37712  -13.53769
       O   -10.15275   -0.50158  -13.19557
      H1    -9.30734   -0.01221  -13.31900
       H   -11.45501   -3.68397   -8.58920
       O   -11.91429   -3.37201   -9.32119
      H1   -12.86467   -3.26341   -9.13655
       H   -15.05062   -7.39150  -10.60617
       O   -15.61513   -6.74332  -11.12980
      H1   -16.47556   -7.22136  -11.22640
       H    -4.31911   -4.59093  -11.04557
       O    -4.60174   -5.24593  -10.33859
      H1    -4.67803   -6.10071  -10.77375
       H    -7.39505   -3.22815   -6.26262
       O    -8.12712   -2.64413   -6.54832
      H1    -7.82310   -2.19734   -7.28902
       H    -3.67011   -7.36378  -12.46619
       O    -4.67275   -7.39067  -12.57044
      H1    -4.83059   -6.73651  -13.27675
       H    -8.76061   -5.24088  -13.24426
       O    -8.02337   -4.72679  -12.90221
      H1    -7.24764   -5.10318  -13.36386
       H   -11.54710   -9.81500  -10.05716
       O   -11.75198   -9.64419   -9.12054
      H1   -12.28327  -10.43176   -8.81987
       H    -4.82275   -0.45036  -10.44535
       O    -4.25151   -1.13250  -10.19624
      H1    -4.31031   -1.88137  -10.76536
       H    -7.43881   -2.50121  -15.30718
       O    -6.61628   -2.66104  -15.87719
      H1    -5.93670   -2.15456  -15.46382
       H    -6.15468   -4.49987  -14.94700
       O    -5.80798   -5.34803  -14.69128
      H1    -6.12347   -6.00128  -15.32544
       H    -3.60018   -8.44907   -8.89815
       O    -3.66461   -9.40907   -9.10649
      H1    -3.85764   -9.89836   -8.29648
       H    -7.33576  -10.09958   -7.56587
       O    -7.37926  -11.00769   -7.81501
      H1    -8.19399  -11.13373   -8.37262
       H   -10.75394   -5.06805   -7.44322
       O   -10.68746   -4.32073   -6.81997
      H1    -9.79349   -3.92769   -6.89549
       H   -14.01750   -7.10980  -13.70708
       O   -14.37372   -6.26865  -13.41975
      H1   -14.94658   -6.32615  -12.60922
       H    -4.72750   -4.67131   -6.15378
       O    -5.22168   -3.85456   -6.07653
      H1    -4.95583   -3.52738   -5.19871

