156
frame 9 | Written by MDAnalysis XYZWriter (release 2.4.3)
       H   -17.17060   -0.18091  -10.22340
       O   -16.23899   -0.29118  -10.48962
      H1   -15.70944    0.23558   -9.90501
       H   -11.49674   -1.63113   -9.93302
       O   -11.00447   -0.75257  -10.03872
      H1   -10.72478   -0.65600  -10.97220
       H   -17.38869   -1.59977  -14.12306
       O   -16.80389   -1.00454  -13.65978
      H1   -16.33499   -1.64377  -13.14161
       H    -8.66014   -4.78983  -15.60830
       O    -8.77185   -5.43685  -16.34906
      H1    -9.74233   -5.33633  -16.46565
       H   -15.67685   -1.95208  -11.46611
       O   -15.16549   -2.69776  -11.82308
      H1   -15.74527   -3.24346  -12.42395
       H    -8.82144   -0.10670   -7.96440
       O    -8.91528   -0.90223   -8.52939
      H1    -9.69332   -0.87572   -9.04976
       H    -6.32599    0.54780  -14.67433
       O    -5.37511    0.57813  -14.62831
      H1    -5.16745    1.43800  -14.21739
       H   -15.21422   -1.85833  -16.16618
       O   -14.55886   -1.12940  -16.13115
      H1   -14.81682   -0.61214  -15.36892
       H   -11.49040   -9.82338  -13.40959
       O   -11.86040  -10.29239  -14.19408
      H1   -11.09670  -10.64448  -14.72879
       H   -17.62162   -3.97349  -13.60521
       O   -16.74138   -4.22804  -13.86063
      H1   -16.68680   -5.09088  -13.36600
       H   -12.63433   -5.46654  -11.68389
       O   -12.13660   -5.50066  -10.82522
      H1   -12.22582   -4.61963  -10.42662
       H   -17.96552   -1.46996  -16.18405
       O   -18.78948   -1.40129  -15.60264
      H1   -18.97109   -2.31701  -15.26736
       H   -15.77684   -3.37117   -8.85689
       O   -15.26195   -4.03597   -9.35669
      H1   -15.20818   -3.55754  -10.20595
       H    -8.57763   -3.49175  -18.29555
       O    -9.43436   -3.57999  -18.73813
      H1    -9.29083   -4.28647  -19.33594
       H    -7.37986   -6.77099   -9.76152
       O    -8.03521   -7.49328   -9.90630
      H1    -8.63533   -7.08848  -10.52759
       H   -14.48640    1.80993  -11.57670
       O   -14.41918    2.48158  -10.89133
      H1   -14.85411    3.22430  -11.26037
       H   -18.21714   -5.78383  -10.89890
       O   -17.89214   -5.09692  -10.26875
      H1   -17.05235   -4.84596  -10.59507
       H   -13.45123    1.59985   -9.32208
       O   -12.89412    1.22917   -8.57517
      H1   -12.03110    1.04533   -9.01187
       H   -12.92460   -7.96325   -9.14641
       O   -13.60331   -7.32103   -8.91619
      H1   -13.40977   -6.61499   -9.56382
       H   -13.18434   -1.01607  -12.91653
       O   -12.31781   -1.35263  -13.15785
      H1   -11.73224   -0.60077  -13.01211
       H   -11.84341   -8.10806  -16.58178
       O   -11.30704   -7.43663  -16.92941
      H1   -10.53387   -7.87979  -17.39889
       H    -6.73234    0.67384  -11.28967
       O    -6.94406   -0.24902  -11.29691
      H1    -7.64971   -0.20814  -10.65196
       H    -6.18494   -3.40797  -16.73069
       O    -6.54100   -3.02849  -17.52580
      H1    -5.86757   -3.25597  -18.13338
       H   -14.96101    0.19036  -19.26804
       O   -14.12330    0.06859  -18.78462
      H1   -14.35069   -0.34191  -17.92600
       H    -9.80845    3.38294  -11.47192
       O    -9.19569    2.61098  -11.44372
      H1    -8.52471    2.74363  -12.11219
       H    -9.79887   -6.75950  -12.81699
       O    -9.49931   -6.60792  -11.87469
      H1   -10.30515   -6.40351  -11.34106
       H    -6.84144   -2.57367  -13.36285
       O    -5.91935   -2.32933  -13.17472
      H1    -6.04046   -1.51030  -12.64447
       H    -9.13782  -10.03956  -12.55341
       O    -9.92698   -9.46870  -12.35431
      H1    -9.48982   -8.60593  -12.18578
       H   -11.67642   -3.12264  -13.67551
       O   -11.22653   -3.81139  -14.16401
      H1   -11.65701   -3.86244  -15.04620
       H   -15.12948   -3.72393  -17.88832
       O   -14.41320   -3.99492  -18.41216
      H1   -14.43432   -3.43998  -19.14671
       H    -9.19932    0.73234  -15.28404
       O    -8.69590    0.02155  -14.86380
      H1    -9.14691   -0.72017  -15.20548
       H    -9.57998   -5.68467   -8.55084
       O    -9.95280   -6.04565   -7.75407
      H1    -9.91774   -7.04492   -7.87525
       H    -9.58639    3.69578  -18.11703
       O    -9.02553    2.95616  -17.80892
      H1    -9.58739    2.34289  -17.25644
       H    -5.40456   -7.69827  -16.26159
       O    -6.34961   -7.53968  -16.23332
      H1    -6.40245   -6.68424  -16.72387
       H   -14.18354   -5.64881  -17.70248
       O   -14.19800   -6.56284  -17.52585
      H1   -13.26938   -6.77504  -17.81450
       H    -5.83904   -1.31352  -17.31056
       O    -5.09764   -0.73340  -17.18772
      H1    -5.01684   -0.47726  -16.27657
       H   -13.44431    4.45204  -13.28126
       O   -12.78536    3.79313  -13.10967
      H1   -13.12353    3.36061  -12.31978
       H   -10.40091   -7.36552  -15.24664
       O    -9.55755   -7.39108  -14.74538
      H1    -9.07736   -6.70293  -15.22016
       H   -17.02390   -3.66315  -16.98965
       O   -16.33901   -3.19992  -16.40824
      H1   -16.33120   -3.78531  -15.64461
       H    -9.67581   -0.00155  -13.33973
       O   -10.19017    0.26952  -12.57058
      H1   -10.00279    1.22756  -12.57527
       H   -11.66320   -3.29704   -8.44707
       O   -12.23650   -3.17345   -9.24161
      H1   -13.09232   -3.42103   -8.90765
       H   -14.98853   -8.03345   -9.74999
       O   -15.88103   -8.06871  -10.15738
      H1   -16.16746   -8.97441  -10.39421
       H   -12.45653   -4.03081  -17.54711
       O   -11.60802   -3.98917  -17.11919
      H1   -10.90906   -3.89937  -17.84072
       H   -11.39446   -1.98713  -16.81420
       O   -11.23165   -1.11166  -16.46774
      H1   -12.14723   -0.77763  -16.27418
       H    -9.24389   -3.76004  -13.78646
       O    -8.32517   -3.70846  -14.01858
      H1    -7.93935   -4.50190  -13.62296
       H   -16.93660    1.67506  -14.52754
       O   -16.30886    1.64131  -15.26405
      H1   -16.18434    2.58948  -15.53770
       H   -11.63747    2.23765  -16.21681
       O   -10.87897    1.67113  -16.33644
      H1   -11.16727    0.82285  -16.59805
       H   -11.22628   -9.40064  -10.55559
       O   -11.85975   -9.47923   -9.84719
      H1   -12.00880  -10.40016   -9.69454
       H    -5.26536   -3.29351  -14.56916
       O    -5.43790   -3.96569  -15.36979
      H1    -4.64054   -3.89780  -15.90323
       H    -6.18820   -5.09852  -14.40966
       O    -6.70793   -5.75216  -13.84689
      H1    -6.82686   -6.45240  -14.55473
       H   -14.74700    1.51540  -14.21352
       O   -13.88098    1.30627  -13.76434
      H1   -13.42503    2.18225  -13.85603
       H   -15.21579   -7.32778  -13.15846
       O   -15.66195   -6.83255  -12.44577
      H1   -15.56126   -7.33703  -11.60188

