156
frame 4 | Written by MDAnalysis XYZWriter (release 2.4.3)
       H    16.38526  -11.49213   14.76877
       O    16.28388  -12.27962   15.37420
      H1    15.67708  -12.00868   16.05026
       H    12.59431   -6.14337   11.05321
       O    11.64314   -6.24644   10.89426
      H1    11.39930   -5.32500   10.96114
       H    10.14734   -4.02027   16.46319
       O    10.71020   -4.40909   17.18014
      H1    10.36801   -5.28313   17.26685
       H     9.59466  -13.40677   13.76427
       O     9.90621  -14.22117   14.20859
      H1     9.15769  -14.40356   14.79722
       H     8.89121  -11.15212   11.57628
       O     8.84443  -10.92201   10.63940
      H1     9.26396  -10.05822   10.47552
       H    12.78644  -14.20670   15.48616
       O    11.98745  -13.86407   15.97850
      H1    11.30474  -13.94080   15.28241
       H    15.18863   -6.53415   11.58860
       O    14.54290   -6.62366   10.85626
      H1    15.01898   -6.31771   10.08007
       H    12.39725  -11.03225   15.39545
       O    12.00377  -10.29551   14.88483
      H1    11.77825  -10.69417   14.03561
       H    14.47991  -12.62518   17.38703
       O    14.39039  -11.66564   17.18927
      H1    14.63135  -11.08357   17.91174
       H     8.48266   -8.18039   13.55431
       O     9.01245   -7.49165   13.11674
      H1     9.46951   -7.97469   12.44016
       H    11.72321   -7.72806   14.83560
       O    10.84797   -7.58507   15.21220
      H1    10.21946   -7.46994   14.43746
       H    12.59688   -4.24865   13.84453
       O    11.88635   -3.66237   13.48576
      H1    12.44284   -3.21659   12.84398
       H    11.12103  -10.00899   16.63910
       O    10.86118  -10.00031   17.54382
      H1    11.25398  -10.72785   17.98890
       H    12.06565   -9.03475   18.44692
       O    12.87410   -8.75510   18.86908
      H1    12.85964   -7.81882   19.02223
       H    12.53618   -1.69615   14.44735
       O    12.95447   -1.42772   15.30537
      H1    13.25332   -0.52619   15.06250
       H    14.42905   -8.70838    9.19602
       O    15.03014   -9.34777    8.82415
      H1    14.47241   -9.83619    8.17694
       H    10.84871  -12.83552   19.06579
       O    11.63420  -13.31982   18.82717
      H1    11.58225  -13.29427   17.86509
       H    14.28159   -8.12288   15.02774
       O    13.87425   -8.31139   14.17596
      H1    13.34159   -9.12855   14.31416
       H    13.37138   -5.53928   19.94548
       O    14.01644   -6.12346   19.43444
      H1    14.09419   -5.72136   18.53543
       H     8.31129   -6.17532   12.24131
       O     7.60582   -5.56347   11.83860
      H1     7.88209   -5.45276   10.90056
       H     6.22102  -11.35168   19.43443
       O     6.10591  -11.12667   18.46435
      H1     6.87557  -10.64272   18.11476
       H    11.72211  -11.56496   11.41765
       O    11.98846  -10.82285   12.03795
      H1    12.94664  -10.86058   12.15383
       H     5.02490  -10.07674   14.42851
       O     5.21878   -9.80948   13.50411
      H1     4.78233  -10.36960   12.89004
       H    10.95166   -9.37406   11.31191
       O    10.30279   -8.72240   10.96702
      H1    10.78359   -7.84644   10.91016
       H     8.66478   -7.13128   17.49694
       O     9.64255   -6.95524   17.63513
      H1    10.02885   -7.20068   16.76653
       H    14.26883  -14.21863   14.25360
       O    13.63375  -13.75795   13.68807
      H1    14.18556  -12.98912   13.27723
       H    17.02730   -7.84872   19.43894
       O    17.34975   -8.57642   18.93200
      H1    17.76506   -9.22388   19.51024
       H    15.61334   -8.38419   17.37138
       O    14.77411   -8.35980   16.86818
      H1    14.11824   -8.52143   17.52852
       H     8.68986  -11.15541   13.43852
       O     8.81580  -11.97693   12.97723
      H1     7.91662  -12.32830   12.88228
       H     8.02371   -3.53516   18.14507
       O     8.44046   -4.28292   18.60458
      H1     9.38918   -4.25391   18.46143
       H    15.24347   -7.17508   13.46252
       O    15.92438   -6.51244   13.24417
      H1    15.50495   -5.70096   13.50241
       H    11.89297   -3.04446   17.50144
       O    12.10429   -2.11181   17.72006
      H1    12.49460   -1.71185   16.83406
       H     8.09576   -3.59318   12.27221
       O     8.60575   -2.81628   12.53211
      H1     8.69518   -2.88415   13.49899
       H     4.40475   -4.75607   12.35441
       O     4.83224   -5.29851   11.65647
      H1     5.74865   -5.35062   11.97592
       H    15.51235  -11.25375   11.57793
       O    14.67073  -11.71118   11.80130
      H1    14.37168  -12.01931   10.89630
       H    15.48373   -3.66525   17.48476
       O    15.27785   -4.59817   17.28133
      H1    16.12317   -5.05905   17.04959
       H    17.95551   -9.96884   14.30421
       O    17.95223  -10.77744   13.74987
      H1    18.08585  -10.36565   12.89811
       H    11.36428   -5.64427    7.67749
       O    11.29491   -6.52003    8.16509
      H1    11.32519   -6.18517    9.11938
       H     7.84983   -9.13806   17.63679
       O     7.98082   -9.91215   17.04998
      H1     8.94189   -9.97940   17.01020
       H    17.60894   -6.50640   15.75290
       O    17.67682   -5.71587   16.33697
      H1    18.13623   -5.00494   15.80441
       H     7.89359   -9.65068   15.13161
       O     7.99038   -9.81655   14.16798
      H1     7.07084   -9.71850   13.81265
       H    18.53792   -6.84315   11.32284
       O    18.54090   -6.57809   12.25249
      H1    17.62075   -6.40202   12.48968
       H     8.18171   -1.52900   17.34825
       O     7.42223   -2.16837   17.53075
      H1     7.28633   -2.66908   16.69666
       H     5.69956   -6.67073   15.07427
       O     5.86353   -6.32371   15.96068
      H1     6.06531   -5.33964   15.79129
       H    18.59018   -7.60170   14.12475
       O    18.30291   -8.19703   14.85120
      H1    19.13557   -8.34915   15.28386
       H    14.66526   -4.58261   15.30787
       O    14.46699   -4.27770   14.42533
      H1    15.02601   -3.51416   14.23298
       H    12.49443   -2.26368   10.50564
       O    12.82957   -1.85310   11.30701
      H1    13.83691   -1.87094   11.25380
       H    17.43670  -10.99161   10.11166
       O    17.07189  -10.21456   10.65142
      H1    16.28022   -9.93873   10.21373
       H     6.66804   -7.17110   17.19911
       O     7.06693   -7.45923   18.05301
      H1     7.16022   -6.63441   18.56182
       H     9.81395   -4.03259    9.88768
       O    10.70105   -3.74087   10.19343
      H1    10.41947   -3.38593   11.00016
       H     9.99499   -3.52473   14.66041
       O     9.38225   -3.07409   15.25598
      H1     9.76637   -2.19126   15.43131
       H    11.28001   -8.81737    8.51159
       O    10.75434   -9.32341    7.86352
      H1    11.37843  -10.03438    7.69011

