156
frame 11 | Written by MDAnalysis XYZWriter (release 2.4.3)
       H    -5.27021    3.73740   -4.23939
       O    -5.65012    2.84337   -4.32714
      H1    -6.17468    2.75808   -5.16346
       H    -4.17505    6.37494   -8.42057
       O    -4.23080    5.65583   -7.78923
      H1    -5.09272    5.72163   -7.30367
       H    -5.00493   -3.49300   -5.23418
       O    -4.92809   -2.58746   -4.90477
      H1    -5.70343   -2.13353   -5.38132
       H    -9.59764    5.23075   -7.01189
       O    -9.36424    5.40265   -7.96327
      H1    -8.93298    4.53337   -8.24488
       H    -4.10555    3.89722    1.47813
       O    -4.03333    4.42396    0.63560
      H1    -3.37896    3.96126    0.13688
       H    -7.17386    6.37572   -2.07648
       O    -6.29590    6.22873   -1.69194
      H1    -6.52179    5.58259   -1.02787
       H    -0.58173   -0.64094   -2.46149
       O    -1.24919   -0.74897   -1.77271
      H1    -0.74985   -1.28342   -1.14078
       H   -10.99162    4.10937   -5.19900
       O   -10.20146    4.72008   -5.03408
      H1   -10.64473    5.41617   -4.48610
       H    -3.99441   -1.03691   -5.64785
       O    -3.09793   -0.73569   -5.66589
      H1    -2.92997   -0.46292   -4.72596
       H     0.56654    5.11028   -7.96600
       O     1.43025    5.05091   -8.32666
      H1     1.18856    5.19842   -9.23348
       H     1.66136    1.49613   -5.18400
       O     1.38130    2.40201   -5.04877
      H1     0.57346    2.48863   -5.62264
       H    -3.87821   -2.18095   -1.58146
       O    -3.21843   -2.67687   -2.10163
      H1    -2.54649   -2.04505   -2.38218
       H    -3.95010    8.05595   -0.82296
       O    -3.65257    7.98755   -1.72755
      H1    -4.23842    7.33730   -2.08753
       H     0.69930    1.74829   -0.12803
       O     1.59885    2.04551   -0.28120
      H1     1.64447    2.58735   -1.05296
       H    -6.58332    5.70903   -5.80144
       O    -6.70217    5.32412   -6.67462
      H1    -7.44081    5.84898   -7.07724
       H    -3.57694    8.31140   -5.29342
       O    -4.00590    9.17691   -5.26083
      H1    -4.95570    9.11725   -5.31785
       H     0.88191   -2.01345   -5.01189
       O     0.42445   -1.23183   -5.40386
      H1     0.77101   -1.18290   -6.31576
       H    -4.09195    5.80633   -4.04593
       O    -4.65533    5.18752   -3.46154
      H1    -5.24139    5.67313   -2.88674
       H    -6.72301    2.16102   -7.20153
       O    -7.13773    2.02047   -6.33611
      H1    -6.91399    1.10807   -6.01839
       H     3.49516   -0.55654   -4.29937
       O     2.88407   -0.15135   -4.99008
      H1     2.05246   -0.62271   -4.90650
       H    -5.77257    0.14764  -10.45889
       O    -6.01784   -0.76718  -10.43874
      H1    -6.95237   -0.73350  -10.20568
       H    -1.19277    2.26921   -8.22508
       O    -1.11093    1.74591   -9.00408
      H1    -1.60315    0.91424   -8.74291
       H    -6.21196    3.54237   -8.65248
       O    -5.44795    2.96764   -8.32536
      H1    -4.81308    3.60726   -7.93664
       H    -5.38285    2.07989    2.44773
       O    -4.59317    2.68235    2.54554
      H1    -3.83310    2.08185    2.62549
       H     2.25507    4.49764   -2.35770
       O     1.56815    3.76754   -2.37249
      H1     1.59598    3.43998   -3.28057
       H    -1.63728   -2.38288   -5.34979
       O    -2.05255   -3.29183   -5.25088
      H1    -3.01079   -3.16916   -5.26777
       H    -2.88968    2.17793   -3.07611
       O    -3.04702    1.85872   -3.95448
      H1    -3.96469    2.01571   -4.21790
       H    -3.62139    3.44632   -1.29332
       O    -2.65024    3.31488   -1.31748
      H1    -2.13270    4.05669   -1.61619
       H    -8.98424    2.84436  -10.19012
       O    -8.58433    2.97906   -9.30593
      H1    -8.85085    2.13820   -8.84976
       H    -3.04981    6.26350   -5.91601
       O    -2.95373    6.78398   -5.12112
      H1    -2.03499    6.74960   -4.91388
       H    -5.40392    0.19085   -0.52682
       O    -5.32970   -0.70541   -0.96439
      H1    -6.22576   -1.08982   -0.90960
       H    -8.61690    4.36371   -4.17137
       O    -8.04826    4.38828   -3.42095
      H1    -7.25451    3.93097   -3.69224
       H    -0.71082    6.00672   -0.99635
       O    -0.80313    5.29671   -1.64954
      H1     0.05473    4.84218   -1.69471
       H   -10.36856   -1.06024   -4.71157
       O    -9.70337   -0.77511   -5.31367
      H1    -9.67525   -1.48619   -5.96552
       H    -7.69587   -0.54172   -5.20840
       O    -6.75278   -0.54687   -5.14480
      H1    -6.53674   -0.51056   -4.21072
       H    -1.96509    2.55119  -10.36777
       O    -2.41732    2.99053  -11.08713
      H1    -3.27349    2.54683  -11.10923
       H    -2.12639   -0.91154   -7.37143
       O    -1.88966   -0.95955   -8.33346
      H1    -2.59661   -1.45906   -8.77742
       H    -8.04402   -2.42875   -1.43993
       O    -7.89941   -1.69263   -0.88502
      H1    -7.97367   -1.90505    0.02701
       H    -0.38479   -4.35003   -0.65636
       O    -0.98592   -4.60664   -1.38829
      H1    -1.22656   -3.77843   -1.73918
       H    -4.73289   -1.58859   -9.60196
       O    -3.95848   -2.09147   -9.25947
      H1    -3.78572   -2.72884   -9.92815
       H    -7.34751    5.13836    0.48169
       O    -6.77737    4.49153    0.07157
      H1    -5.93187    4.67192    0.45447
       H    -0.76562    6.22409   -6.92872
       O    -1.19837    5.33649   -6.98285
      H1    -1.62764    5.28001   -7.85164
       H    -4.38600   -1.13484    2.06582
       O    -3.80597   -1.38042    1.33964
      H1    -4.18814   -0.89017    0.54368
       H    -5.37470    2.31968   -9.88825
       O    -5.29405    2.00313  -10.77584
      H1    -5.88405    2.42896  -11.41476
       H    -9.74933    0.55209   -7.42101
       O    -8.91402    0.65727   -7.88345
      H1    -8.35325    1.27168   -7.33552
       H    -0.52651    5.96371   -3.46284
       O    -0.21463    6.42158   -4.28197
      H1     0.03797    7.32254   -4.11050
       H    -1.30075    0.57891   -0.45016
       O    -1.16327    1.40975    0.08383
      H1    -1.75032    2.14466   -0.21304
       H    -5.76546    2.56898   -2.28828
       O    -5.52096    2.23898   -1.37277
      H1    -5.99337    2.85443   -0.84404
       H   -10.30438    4.15970   -1.10738
       O    -9.45494    4.59308   -1.15078
      H1    -9.07027    4.35439   -2.00934
       H    -1.69014    2.59574   -5.28697
       O    -1.17036    2.80382   -6.07618
      H1    -1.13901    3.80404   -6.04556
       H    -8.98355   -0.03883   -1.37658
       O    -9.33457    0.83343   -1.32813
      H1    -8.55837    1.37536   -1.55401
       H    -6.00452   -4.80947   -2.48662
       O    -5.13530   -5.09201   -2.80070
      H1    -4.48699   -4.35356   -2.65083

