156
frame 10 | Written by MDAnalysis XYZWriter (release 2.4.3)
       H     5.59117   -8.61904    1.94003
       O     6.08272   -7.87633    1.54173
      H1     5.60576   -7.81480    0.70953
       H     1.87179   -9.00197    0.44579
       O     2.28230   -9.08656   -0.42633
      H1     3.07691   -8.53304   -0.35983
       H     3.85361   -4.82434   -5.01299
       O     4.66661   -5.24060   -4.70124
      H1     5.05590   -5.41305   -5.55659
       H     9.58342  -13.80155   -1.50107
       O     9.40409  -13.00438   -1.98965
      H1    10.12802  -12.85864   -2.59781
       H     1.59808   -8.04298   -3.66101
       O     2.44573   -7.62807   -3.50543
      H1     2.68161   -7.41826   -4.41493
       H    11.40088   -9.01526  -11.07593
       O    11.66027   -8.40811  -10.32804
      H1    12.21536   -7.64469  -10.60692
       H    11.88274   -7.50718   -8.61063
       O    12.46570   -7.09446   -7.90301
      H1    13.07739   -7.74920   -7.62553
       H     8.27411   -8.36440  -11.58984
       O     7.76511   -8.20832  -10.72522
      H1     8.35684   -7.56657  -10.33840
       H     8.22598  -13.95376   -3.58360
       O     8.14842  -14.79104   -4.07152
      H1     8.41058  -14.54000   -4.95685
       H     9.27849  -10.54662   -4.45652
       O     9.82639  -11.33175   -4.46272
      H1    10.30903  -11.19436   -5.28839
       H     6.75676   -6.01873    0.53516
       O     7.00921   -5.55254   -0.30127
      H1     7.18254   -4.69430    0.07904
       H     3.65086  -15.26313   -3.59819
       O     3.54331  -14.91883   -4.54430
      H1     2.68804  -15.21847   -4.81394
       H     3.63126   -9.24533   -9.02343
       O     3.49889   -8.36799   -9.42908
      H1     4.30871   -7.90944   -9.26532
       H     6.28744  -10.78097    1.71243
       O     6.79270  -11.51000    1.36761
      H1     7.37925  -11.04258    0.72465
       H     4.18791   -5.05489   -2.84044
       O     3.61876   -5.40765   -2.14561
      H1     3.10115   -6.06995   -2.59887
       H     5.47817   -3.38426   -8.30527
       O     4.56701   -3.30350   -7.98306
      H1     4.06102   -2.64440   -8.46281
       H     5.75333  -15.50955   -6.72738
       O     5.35943  -16.15707   -6.18768
      H1     5.04911  -15.67225   -5.42862
       H     8.56778   -9.75805   -0.77830
       O     8.67329  -10.59406   -0.30753
      H1     8.91638  -11.24035   -0.95830
       H     5.22611  -12.64899   -8.44256
       O     5.87184  -12.51881   -7.72453
      H1     5.24874  -12.38869   -6.96928
       H     6.87617   -6.78454   -7.14666
       O     6.16005   -6.19885   -6.95183
      H1     6.47925   -5.35938   -7.32582
       H    10.83506  -12.85421  -10.81462
       O     9.95453  -12.68909  -10.40300
      H1     9.51271  -13.50033  -10.67353
       H     7.58157  -13.21844   -1.38306
       O     6.68507  -13.30640   -1.18999
      H1     6.50593  -12.74239   -0.39031
       H     6.61386  -13.95364   -8.10066
       O     7.10046  -14.80546   -7.96580
      H1     6.95817  -15.37363   -8.67568
       H    13.51164  -10.83442   -5.78256
       O    13.72395  -11.74941   -6.04181
      H1    14.38111  -11.73117   -6.73240
       H     4.05666  -11.63629   -5.03496
       O     3.87467  -12.12675   -5.84431
      H1     3.90367  -13.06658   -5.63771
       H     2.98643  -11.11871   -7.12640
       O     2.89135  -10.70293   -8.01431
      H1     2.05602  -10.89242   -8.33488
       H    11.77291   -8.10457   -1.03294
       O    11.32535   -7.23568   -0.90998
      H1    11.13470   -7.00867   -1.82452
       H     8.66357   -5.53907   -4.52166
       O     9.08410   -6.30840   -4.83868
      H1     9.00373   -6.22839   -5.76968
       H     7.72879   -3.40675   -8.13223
       O     7.18820   -4.01880   -8.59002
      H1     7.03983   -3.59435   -9.44527
       H     4.60064   -8.07378   -6.41550
       O     3.68820   -7.96851   -6.04411
      H1     3.11908   -8.41204   -6.65988
       H     9.22321  -10.91999   -8.15836
       O     9.94167  -11.50107   -7.96402
      H1    10.16263  -11.98859   -8.76772
       H    12.67925   -9.80782   -4.29336
       O    12.92117   -9.27222   -5.09374
      H1    13.84237   -8.97342   -4.85548
       H     1.90742   -7.83377   -7.90551
       O     1.22601   -8.05589   -7.19180
      H1     0.48433   -8.45543   -7.59988
       H     9.39051   -8.06586   -7.16531
       O     8.99253   -7.21326   -7.48912
      H1     9.41222   -6.96539   -8.29951
       H     6.33792   -4.18770   -1.83733
       O     6.36876   -3.29087   -2.24780
      H1     6.79819   -3.42086   -3.10463
       H    10.33586  -11.16926  -11.22173
       O    10.64806  -10.45851  -11.79920
      H1    10.88180  -10.92506  -12.60404
       H     7.17792  -10.72060   -8.89110
       O     7.79959   -9.98680   -8.72723
      H1     7.86856   -9.47405   -9.51586
       H     5.09140   -8.33732   -1.49274
       O     4.62165   -7.71283   -0.91199
      H1     4.44982   -6.92651   -1.48715
       H     3.58613  -11.96559   -9.48845
       O     3.92904  -12.79428   -9.85863
      H1     4.15813  -12.60384  -10.79504
       H     9.53639   -7.48730   -0.40460
       O     8.58467   -7.72299   -0.38826
      H1     8.14463   -6.90217   -0.61010
       H     4.43426   -9.58099   -4.67963
       O     4.00691  -10.10134   -3.98737
      H1     3.32525   -9.46846   -3.75252
       H    11.42498   -9.10588   -5.90408
       O    10.68308   -9.25693   -6.51796
      H1    10.80470  -10.16152   -6.84718
       H    11.29759   -3.79873   -3.78055
       O    11.55589   -4.58534   -4.32922
      H1    10.80632   -5.23848   -4.26400
       H    10.08352   -5.51136  -10.15427
       O     9.16167   -5.76598   -9.89497
      H1     8.76185   -4.95275   -9.63100
       H     6.95406   -9.43842   -7.11390
       O     6.47395   -9.04335   -6.41077
      H1     6.95025   -9.38685   -5.65634
       H     8.23493   -8.69392   -3.73696
       O     7.73377   -9.48191   -4.10023
      H1     7.16221   -9.85027   -3.39412
       H     5.62530   -6.44638   -8.62617
       O     5.45555   -6.67535   -9.59639
      H1     6.21477   -7.16918   -9.83979
       H     8.39204  -14.20641   -7.25520
       O     9.23861  -14.10823   -6.70043
      H1     9.60936  -13.29484   -7.12006
       H    12.39451  -11.36809   -2.61305
       O    11.96908  -10.52822   -2.86088
      H1    11.11516  -10.68948   -3.28056
       H     6.62450   -4.54642   -4.80342
       O     7.39810   -3.94749   -4.72181
      H1     7.16573   -3.05949   -5.09211
       H    11.52841   -7.93992   -4.24861
       O    10.90151   -7.73193   -3.56118
      H1    10.24734   -7.26532   -4.05549
       H     5.99929  -11.27659   -1.91282
       O     5.94986  -10.40385   -2.22625
      H1     5.11469  -10.36407   -2.71070

