156
frame 8 | Written by MDAnalysis XYZWriter (release 2.4.3)
       H    16.52654   12.19648    4.54858
       O    16.91938   11.79404    3.77380
      H1    16.74470   10.81048    3.89792
       H    12.27324   18.70621   15.88314
       O    12.74945   18.21856   15.21946
      H1    13.37760   17.67222   15.72721
       H    14.75989   15.78075    3.84693
       O    14.16725   15.04385    3.87680
      H1    14.65047   14.44726    4.43262
       H    17.09208   18.69385   13.26489
       O    17.06586   18.00156   13.92608
      H1    17.92022   18.16201   14.33808
       H    12.49560   13.13735   17.40832
       O    12.91821   13.63786   18.09821
      H1    13.03344   12.93121   18.79305
       H    17.64904   11.04066   12.72844
       O    17.51580   11.08877   13.68696
      H1    18.11819   10.42319   14.12536
       H    18.77361   17.28753   16.00983
       O    19.21475   18.01995   15.55910
      H1    19.96341   17.59572   15.15138
       H    10.93682    8.93176   11.18517
       O    11.33578    9.79039   11.42255
      H1    11.40414   10.27005   10.59772
       H    19.13624    8.29112    8.93615
       O    19.29321    7.36460    8.77618
      H1    19.14400    7.16797    7.84475
       H    18.09322   20.13418   17.89227
       O    17.90483   19.86583   17.00914
      H1    18.32862   19.04787   16.73292
       H    12.38284   11.54444    8.92760
       O    11.40271   11.58620    9.11806
      H1    11.27267   12.46730    9.41560
       H    15.16850   18.16265   19.40094
       O    14.57355   17.37355   19.22097
      H1    13.68623   17.72108   18.89389
       H    14.77518   17.17928    7.95694
       O    14.95967   17.72005    8.72654
      H1    15.86639   17.87497    8.91036
       H    15.02644   10.17022    9.79986
       O    15.41149    9.67954   10.55224
      H1    15.89747    8.96200   10.19057
       H    14.08659    9.50455   11.81854
       O    13.60033    9.30486   12.68476
      H1    12.70932    9.24645   12.33319
       H    10.56695   17.62650   11.75748
       O    10.83485   16.96033   11.14021
      H1    11.84046   17.05269   11.02139
       H    18.41800   18.41221   19.62060
       O    18.60223   17.50345   19.39559
      H1    17.87522   17.38631   18.77891
       H    10.27800   17.86240    9.18030
       O    10.27930   18.61224    8.64221
      H1     9.37306   18.84898    8.60954
       H    16.94495   14.89375    9.61235
       O    17.50576   15.67434    9.59527
      H1    17.63764   15.94341   10.51503
       H    11.35074   14.17926   15.40096
       O    11.53089   13.27733   15.72055
      H1    12.03715   12.83379   15.04869
       H    14.75524   14.48351   18.46028
       O    15.56616   15.09936   18.52883
      H1    15.20024   15.89706   18.95636
       H    12.15954   19.22276   18.37252
       O    12.16598   18.22705   18.39454
      H1    11.23552   17.83846   18.39776
       H    18.06432   10.98899    5.83800
       O    18.29535   11.27931    6.70591
      H1    19.24979   11.15181    6.85401
       H    13.31515   16.86197    6.46832
       O    14.27228   16.71226    6.28379
      H1    14.37851   17.05079    5.39301
       H    16.59285   17.11935   15.67621
       O    16.82574   16.87148   16.58284
      H1    16.07293   16.49169   17.01268
       H    17.03505   12.23682    9.63550
       O    16.62792   12.72773    8.91263
      H1    17.03826   12.22353    8.13870
       H    16.98444   14.48052    5.47766
       O    16.13735   14.04261    5.58735
      H1    15.89803   14.20156    6.46168
       H    19.15384   13.43460   14.49098
       O    18.27338   13.50686   14.78911
      H1    17.81917   12.92100   14.11311
       H    14.16613   11.66809   15.22147
       O    13.48162   11.41152   14.57159
      H1    13.80052   10.67137   14.02971
       H    12.07870   19.34275    8.55573
       O    12.90071   19.66128    8.15734
      H1    13.57778   19.12721    8.49542
       H    16.91710   18.51128    6.29010
       O    17.79292   18.27224    5.99665
      H1    18.14796   19.10247    5.65749
       H    18.90534    8.55970   15.10420
       O    19.21486    9.44741   14.74691
      H1    19.61873    9.93122   15.48434
       H    14.90881   12.04608    8.90644
       O    14.22036   11.35620    8.78858
      H1    14.48003   11.08519    7.84629
       H    18.27320   13.84508   16.67366
       O    18.17044   14.07110   17.64364
      H1    17.34645   14.56833   17.64734
       H     9.06618   12.48400   12.99143
       O     9.24230   12.00422   12.20891
      H1     9.92363   11.40996   12.35783
       H    14.42125    8.94627    6.29249
       O    15.02376    9.70411    6.36171
      H1    15.81923    9.26348    6.04473
       H    15.26032   15.54829   12.99937
       O    14.30026   15.39741   12.99439
      H1    14.14506   14.49436   12.67624
       H    17.28058   11.44199   19.12314
       O    16.54389   10.87541   18.86930
      H1    16.41834   10.91469   17.91208
       H    11.06766   17.91792    7.08449
       O    11.47063   17.36826    6.41873
      H1    10.85633   16.72743    6.01841
       H    10.71686   14.72307   11.00611
       O    10.76742   13.77192   10.86296
      H1    10.03463   13.24718   11.23800
       H    18.27950   10.96040   10.92501
       O    17.48118   11.39384   11.13741
      H1    16.79601   10.71598   10.98691
       H    19.41809   14.15186    4.96525
       O    18.77511   14.05391    4.29681
      H1    18.80947   13.08771    4.15759
       H    18.39745   16.50164    8.19020
       O    19.22407   16.87427    7.75895
      H1    18.98388   17.52454    7.18027
       H    13.80155   16.54039   11.73265
       O    13.52522   17.25290   11.15214
      H1    14.15373   17.28420   10.43699
       H    13.90578   15.54492   15.04267
       O    14.01196   15.94169   15.91605
      H1    13.37943   15.64136   16.54203
       H    17.41355   15.98552    4.05667
       O    16.73372   16.66282    4.12531
      H1    17.13683   17.44622    4.47579
       H    16.38735   11.98209   15.68046
       O    15.62897   12.06063   16.25858
      H1    15.61504   12.97756   16.58240
       H    12.26452   13.37181   11.63208
       O    13.11940   13.06589   12.00502
      H1    12.84753   12.55902   12.79235
       H    10.37799   16.36432   15.10268
       O    11.15878   15.74403   14.92746
      H1    11.84827   16.40426   14.72099
       H    17.44729   16.52696   12.80209
       O    17.34706   15.66412   12.31102
      H1    17.48722   14.97090   12.99447
       H    19.40406   13.42359   11.23630
       O    19.54389   14.13240   10.59085
      H1    18.71129   14.54480   10.62095
       H    15.53672    8.53728   13.14093
       O    16.50374    8.48901   13.26588
      H1    16.69452    9.41715   13.31781

