156
frame 5 | Written by MDAnalysis XYZWriter (release 2.4.3)
       H     6.23089   -7.58783  -12.54539
       O     5.98125   -8.48132  -12.24190
      H1     6.79855   -8.95377  -12.15490
       H     6.52344   -5.80232  -13.73790
       O     7.32265   -6.31200  -13.70117
      H1     7.80306   -5.92340  -12.95814
       H     7.33124   -4.90232  -15.52974
       O     7.63378   -4.00741  -15.65228
      H1     7.13682   -3.59143  -14.96550
       H    10.96232   -9.94353  -11.13875
       O    10.69315   -9.02001  -11.47456
      H1    10.97565   -9.00443  -12.41435
       H    10.86671   -7.14072  -10.51920
       O    11.35841   -6.78855   -9.77632
      H1    11.96832   -7.50564   -9.56814
       H     8.05995   -9.74020   -9.76126
       O     8.45610   -9.68572   -8.86949
      H1     8.24877   -8.77418   -8.80766
       H    16.95095   -5.43106  -13.68227
       O    16.31409   -6.10093  -13.43076
      H1    15.71083   -5.60676  -12.85414
       H    15.11293   -6.32789  -14.56954
       O    14.48578   -6.40744  -15.28450
      H1    13.80309   -7.02331  -14.95951
       H     5.21110   -3.78535   -9.58770
       O     4.54590   -4.46802   -9.73431
      H1     3.83095   -4.20824   -9.11228
       H    11.91530   -5.87763  -14.88462
       O    11.33986   -6.01324  -15.63108
      H1    10.57814   -6.51680  -15.26113
       H     8.16898  -10.66050  -13.64847
       O     8.77497  -11.07329  -14.29374
      H1     8.22658  -10.95990  -15.08507
       H     7.11686   -5.37088   -7.46108
       O     7.05103   -4.48566   -7.06229
      H1     6.16385   -4.04810   -7.03313
       H    11.65869  -12.28214   -8.33241
       O    10.79068  -12.73042   -8.34089
      H1    11.00196  -13.61945   -8.65183
       H    12.68732  -11.51228   -9.86189
       O    12.99851  -11.14830   -9.08226
      H1    13.96679  -11.21888   -9.05158
       H    11.21506   -3.14123  -10.60088
       O    11.51931   -3.93258  -11.08982
      H1    11.53004   -3.54067  -11.93079
       H    14.97521   -2.94745  -14.16527
       O    14.30170   -3.48449  -14.63379
      H1    14.78336   -4.29482  -14.91784
       H    12.15273  -11.28958   -4.14253
       O    11.63817  -10.51139   -4.17888
      H1    11.10486  -10.70029   -4.94758
       H    12.24845   -1.50223  -13.63166
       O    12.01786   -2.41855  -13.53819
      H1    12.82256   -2.91053  -13.93342
       H     9.33701   -6.80965   -4.68834
       O    10.20319   -7.21990   -4.66328
      H1    10.27382   -7.52080   -5.56047
       H     7.52565   -4.06037   -8.85915
       O     7.46621   -4.24231   -9.80907
      H1     7.49773   -3.35802  -10.19317
       H    14.66619   -2.16122  -11.67539
       O    14.12769   -1.94806  -10.90175
      H1    13.82069   -2.79200  -10.61894
       H     9.06024  -11.01407   -6.17663
       O     9.82103  -11.57736   -6.04748
      H1     9.78487  -12.10827   -6.90462
       H    13.31307   -9.36712   -8.82120
       O    13.24012   -8.38113   -8.75535
      H1    13.83803   -8.18388   -7.99733
       H    14.09675   -4.54919   -5.44392
       O    14.63789   -5.07188   -4.87078
      H1    14.02086   -5.57837   -4.32068
       H    13.99926   -7.94710   -5.63921
       O    14.63901   -7.78553   -6.34568
      H1    14.83054   -6.84318   -6.19015
       H     8.78848   -7.20792   -8.18833
       O     7.80931   -6.97036   -8.05275
      H1     7.54998   -6.47114   -8.82640
       H    12.37458   -4.43290   -8.65122
       O    13.28405   -4.15907   -8.58087
      H1    13.44405   -3.82584   -7.70030
       H    10.33021  -12.20660   -9.97988
       O    10.51655  -11.87047  -10.88615
      H1     9.96787  -12.45869  -11.45772
       H    10.07991   -1.26386   -9.80861
       O    10.49636   -1.38724  -10.67609
      H1     9.74803   -1.55452  -11.25508
       H     6.58405  -10.27315   -5.74807
       O     7.46635  -10.27680   -6.21859
      H1     7.49282   -9.61471   -6.96703
       H    14.58994   -9.66515  -13.89287
       O    14.41570  -10.04382  -13.01513
      H1    13.89700  -10.86679  -13.14345
       H     8.76040   -0.42191   -8.16202
       O     8.99536   -1.32431   -8.41622
      H1     9.05412   -1.77221   -7.55786
       H    12.31855   -3.15306   -6.14934
       O    13.21392   -2.79316   -6.21230
      H1    13.11446   -2.06881   -6.85889
       H    15.73833   -8.29398  -10.44129
       O    14.93654   -7.85333  -10.67318
      H1    14.37175   -7.91425   -9.87271
       H    10.49926   -2.39962  -14.55107
       O     9.64015   -1.88960  -14.78728
      H1     8.99187   -2.60554  -15.00107
       H    12.93955   -7.22159  -13.21216
       O    12.61733   -8.03922  -13.67500
      H1    13.10859   -8.72358  -13.22751
       H    11.49548   -6.05005   -3.36216
       O    11.74144   -5.11940   -3.59308
      H1    11.24539   -4.88490   -4.36770
       H     9.63675   -8.92108  -14.60460
       O     9.38940   -8.18477  -15.23463
      H1     8.47968   -7.98958  -15.08552
       H    13.88333   -6.58313  -11.71425
       O    13.49910   -5.89556  -12.31894
      H1    12.94757   -5.37876  -11.70146
       H    13.54264   -9.86505  -15.60104
       O    14.43815   -9.74357  -15.74389
      H1    14.43561   -8.91365  -16.26068
       H    16.32786  -10.68415   -8.17888
       O    15.61909  -11.06803   -8.78342
      H1    15.90498  -10.68067   -9.66311
       H    10.67835   -7.47971   -8.30439
       O    10.21029   -8.08057   -7.65445
      H1     9.91244   -8.91025   -8.09653
       H     7.43722   -0.93389  -11.11591
       O     7.48124   -1.86202  -11.44732
      H1     6.96095   -1.90775  -12.26017
       H    10.83153  -11.23004  -14.90977
       O    11.70030  -11.12046  -15.28084
      H1    11.64248  -11.20757  -16.19610
       H     9.81935   -3.75852   -5.99114
       O    10.63743   -4.32812   -6.06038
      H1    10.40414   -5.28182   -5.95505
       H     8.99442   -9.71708  -11.52165
       O     8.15230   -9.97961  -11.82103
      H1     8.35648  -10.87283  -11.96228
       H    10.12585   -5.16174  -11.11291
       O     9.36963   -5.67791  -11.39616
      H1     8.66525   -5.28238  -10.80266
       H    16.95282   -3.32925   -6.62267
       O    16.86134   -3.56216   -7.60139
      H1    16.21403   -4.33815   -7.63152
       H     4.79845   -6.41638   -9.90199
       O     4.91051   -7.37244   -9.78998
      H1     5.45343   -7.62770  -10.50038
       H     7.53833   -5.47069   -5.47884
       O     7.87221   -5.98243   -4.76491
      H1     7.86031   -5.44125   -3.97441
       H    15.74672   -6.42209   -9.69844
       O    15.65586   -5.62942   -9.16328
      H1    14.70779   -5.36898   -9.22438
       H    17.03966  -10.83609  -11.40844
       O    16.63482   -9.94675  -11.34917
      H1    15.78506  -10.02463  -11.81787

