156
frame 7 | Written by MDAnalysis XYZWriter (release 2.4.3)
       H     6.38715   -5.74717  -13.33392
       O     7.06796   -6.14598  -12.74949
      H1     7.24211   -5.65549  -11.97129
       H    11.23439   -2.34719   -0.50035
       O    11.38114   -2.32400   -1.45724
      H1    12.26816   -2.56839   -1.63023
       H    10.82924   -9.41084  -11.52848
       O    10.88495   -8.47792  -11.33913
      H1    11.14398   -8.14492  -12.21054
       H    11.86225   -7.86393  -10.11044
       O    12.52101   -7.59132   -9.47898
      H1    13.31823   -8.16771   -9.57655
       H    14.08845   -3.29862   -2.75125
       O    14.43618   -3.26909   -1.82459
      H1    14.38004   -4.19666   -1.57857
       H    12.54285   -1.62950   -9.16042
       O    11.74124   -1.62987   -8.54387
      H1    10.95200   -1.37703   -9.04714
       H    12.77244   -0.25124   -5.75803
       O    13.17625   -1.02816   -6.19125
      H1    12.76778   -1.13981   -7.07372
       H    16.89439   -5.49193  -11.62089
       O    16.47306   -6.01115  -12.27721
      H1    16.34378   -6.91256  -11.93639
       H     8.23070    1.00080   -6.30727
       O     7.44083    0.78635   -6.79649
      H1     7.49674    1.51035   -7.47647
       H    15.07761   -1.73206   -2.43474
       O    15.36868   -0.88030   -2.69254
      H1    15.10351   -0.23440   -2.00194
       H     7.03930   -5.24659   -8.49438
       O     6.25729   -5.32155   -7.95855
      H1     5.82920   -4.49441   -8.05699
       H    11.22860   -4.50157   -9.22630
       O    10.67871   -4.51585  -10.01970
      H1    11.11897   -3.95864  -10.60157
       H    11.65539   -1.99589  -11.78712
       O    11.77408   -2.94316  -12.07136
      H1    12.71056   -2.97136  -12.17253
       H     8.34786   -7.22600   -5.66809
       O     9.22559   -7.64845   -5.80753
      H1     9.11942   -7.97485   -6.71030
       H     6.80752   -2.43770   -9.13653
       O     6.40349   -2.92848   -9.89488
      H1     6.57909   -2.33935  -10.67271
       H    14.16684   -2.38136  -10.94310
       O    13.88065   -2.62215  -10.04112
      H1    13.86980   -3.52877   -9.97109
       H    13.13948   -9.75652   -5.23883
       O    13.37813   -8.84945   -5.09183
      H1    13.87558   -8.75499   -4.23696
       H    14.09911   -9.94312   -8.34799
       O    14.53524   -9.16179   -8.85071
      H1    14.80055   -8.63847   -8.06406
       H     6.67535   -2.70601   -5.08700
       O     7.58697   -2.92956   -4.77228
      H1     7.81585   -2.26732   -4.09848
       H    12.74119    0.57126   -1.35293
       O    12.15117    0.40971   -2.05230
      H1    11.99456   -0.54422   -2.00489
       H    16.86893   -4.25441   -3.87955
       O    16.71943   -5.14748   -4.23106
      H1    15.73132   -5.30093   -4.25186
       H    17.67361   -3.58808  -11.33158
       O    17.58594   -4.19549  -10.55782
      H1    17.18206   -3.72956   -9.79499
       H    14.83081   -8.05402   -6.12023
       O    15.59802   -8.00795   -6.73025
      H1    15.86095   -7.10423   -7.00406
       H    16.81718   -3.18345   -7.54132
       O    16.41780   -2.72428   -8.27474
      H1    15.52297   -3.10401   -8.47113
       H    13.42774    1.99822   -4.76199
       O    12.91035    1.16899   -4.59255
      H1    12.86440    0.89761   -3.67042
       H     9.27260   -8.01892   -8.85436
       O     8.49442   -7.48893   -8.82051
      H1     8.45199   -6.94994   -9.57348
       H    18.18469   -1.73205   -3.66209
       O    17.58501   -2.45586   -3.74615
      H1    16.75348   -2.07830   -3.53326
       H    13.58618   -6.06596   -9.05630
       O    14.07139   -5.28047   -9.00796
      H1    13.48005   -4.74683   -8.38083
       H     9.50097   -4.08934   -3.61877
       O    10.43502   -4.34729   -3.57977
      H1    10.82800   -4.20175   -2.77650
       H     8.53866   -0.94818   -8.75412
       O     9.12044   -0.59842   -9.45739
      H1     8.60747   -0.88521  -10.22503
       H     7.55084   -0.84442   -7.21365
       O     7.66206   -1.71413   -7.59846
      H1     8.37363   -2.09182   -7.05047
       H    11.52504   -4.64258   -7.09017
       O    11.97450   -4.11755   -7.80834
      H1    11.84229   -3.15737   -7.81394
       H    11.20283    2.09296   -5.47968
       O    10.41212    2.08142   -5.94405
      H1    10.75715    2.56048   -6.70438
       H    10.69654   -1.57489  -13.79026
       O    10.39106   -1.31203  -14.65908
      H1    10.10810   -2.20215  -15.02569
       H    15.98540   -0.09959   -5.73020
       O    16.50494    0.26530   -4.95825
      H1    15.98372    0.05962   -4.14881
       H    13.90619   -5.80560   -3.31301
       O    14.10216   -5.97329   -4.26590
      H1    13.30613   -5.78821   -4.77433
       H    11.74295   -3.03486   -4.15717
       O    12.73783   -2.99235   -4.16310
      H1    12.89312   -2.39712   -4.92706
       H    14.21912   -6.32318  -11.68042
       O    13.34511   -5.99803  -12.07456
      H1    12.67379   -6.04376  -11.38754
       H    14.32184    2.38693   -8.73327
       O    14.63166    2.34975   -7.87091
      H1    14.97132    1.40548   -7.80636
       H    16.08482   -0.98722   -7.86114
       O    15.57427   -0.24228   -7.63567
      H1    14.75118   -0.53603   -7.19228
       H    15.42826   -2.09711  -12.84587
       O    14.49341   -2.00272  -12.60813
      H1    14.20211   -1.09893  -12.76469
       H    11.39472    0.61863  -12.18555
       O    11.04971   -0.08461  -11.58709
      H1    10.40342    0.42229  -11.08320
       H    13.17596    2.72350  -11.07091
       O    13.53533    2.47138  -10.20655
      H1    12.95317    1.74700   -9.97527
       H    11.53049   -8.50678   -8.00418
       O    10.61821   -8.81384   -7.75920
      H1    10.63623   -9.23299   -6.83778
       H     9.66027   -1.71212   -2.68087
       O     8.78373   -1.40293   -2.88868
      H1     8.32280   -1.48603   -2.04348
       H     6.72044   -0.37301  -11.81457
       O     7.28167   -1.15353  -11.71320
      H1     7.23138   -1.67915  -12.47016
       H    11.00092   -5.49678   -5.00769
       O    11.33796   -5.83100   -5.81980
      H1    10.68728   -6.53231   -6.17384
       H     8.91728   -4.95126  -10.27137
       O     7.94776   -5.25195  -10.26143
      H1     7.38898   -4.45737  -10.14148
       H    18.23743   -3.55407   -5.56615
       O    18.49151   -3.66750   -6.44951
      H1    18.21259   -4.61122   -6.63549
       H     6.53939   -5.59970   -6.10943
       O     6.79803   -5.73356   -5.22331
      H1     7.30236   -4.90071   -5.10336
       H    16.79924   -6.56207   -8.76942
       O    16.31947   -6.00163   -8.12449
      H1    15.52795   -5.71473   -8.59344
       H    11.82068   -8.57479   -4.42872
       O    11.11532   -8.26632   -3.80486
      H1    10.43929   -7.88454   -4.35048

