156
frame 10 | Written by MDAnalysis XYZWriter (release 2.4.3)
       H     7.74006  -18.11531   -5.06883
       O     6.81256  -18.24934   -5.39388
      H1     6.47770  -17.36977   -5.40747
       H     1.87179   -9.00197    0.44579
       O     2.28230   -9.08656   -0.42633
      H1     3.07691   -8.53304   -0.35983
       H    -0.74874  -13.57671   -6.77058
       O    -1.53104  -14.10584   -6.87956
      H1    -2.09024  -14.05781   -6.09482
       H     9.58342  -13.80155   -1.50107
       O     9.40409  -13.00438   -1.98965
      H1    10.12802  -12.85864   -2.59781
       H    -0.30950  -17.26420    3.00746
       O     0.56167  -17.68140    3.07888
      H1     1.17905  -17.01529    2.79564
       H    -0.06571  -11.43943   -6.43441
       O     0.10834  -12.27409   -6.10986
      H1     0.06727  -12.27607   -5.16415
       H     8.76002  -15.88831   -0.71532
       O     9.46668  -15.42736   -0.31592
      H1     9.30904  -15.55686    0.62673
       H     1.42906  -14.86083    1.95437
       O     2.12623  -15.49901    2.27540
      H1     2.68447  -15.67906    1.48897
       H     8.22598  -13.95376   -3.58360
       O     8.14842  -14.79104   -4.07152
      H1     8.41058  -14.54000   -4.95685
       H     8.55172  -18.22564   -2.74136
       O     8.33902  -18.50859   -1.83383
      H1     7.55295  -17.89180   -1.78612
       H     3.65086  -15.26313   -3.59819
       O     3.54331  -14.91883   -4.54430
      H1     2.68804  -15.21847   -4.81394
       H     6.28744  -10.78097    1.71243
       O     6.79270  -11.51000    1.36761
      H1     7.37925  -11.04258    0.72465
       H     2.92745  -12.11646    2.41385
       O     3.08669  -11.27493    1.95980
      H1     2.39687  -10.73611    2.38342
       H     5.00198  -18.97737    2.86088
       O     5.27276  -19.88568    2.46804
      H1     4.67923  -19.93040    1.69979
       H    -2.64512  -15.24564   -4.87721
       O    -2.58634  -14.32610   -4.50589
      H1    -3.48426  -13.96939   -4.66195
       H    -1.33805  -13.29529   -3.17168
       O    -0.59304  -12.73656   -2.84341
      H1    -1.10150  -11.93729   -2.61577
       H     8.46750  -14.30277    2.94213
       O     8.68805  -15.17862    2.59824
      H1     9.65750  -15.16304    2.64316
       H     5.75333  -15.50955   -6.72738
       O     5.35943  -16.15707   -6.18768
      H1     5.04911  -15.67225   -5.42862
       H     1.08308  -15.10893   -3.18155
       O     1.00166  -14.90734   -2.21765
      H1     0.68344  -14.02129   -2.24839
       H    -0.38788  -13.34637    4.94463
       O     0.34803  -12.79518    5.26313
      H1     1.09871  -13.00671    4.74415
       H     5.22611  -12.64899   -8.44256
       O     5.87184  -12.51881   -7.72453
      H1     5.24874  -12.38869   -6.96928
       H     4.08904  -17.38813    0.41393
       O     4.42429  -16.48486    0.58952
      H1     4.43572  -16.08216   -0.27773
       H     7.58157  -13.21844   -1.38306
       O     6.68507  -13.30640   -1.18999
      H1     6.50593  -12.74239   -0.39031
       H     4.05666  -11.63629   -5.03496
       O     3.87467  -12.12675   -5.84431
      H1     3.90367  -13.06658   -5.63771
       H     2.98643  -11.11871   -7.12640
       O     2.89135  -10.70293   -8.01431
      H1     2.05602  -10.89242   -8.33488
       H     7.82639  -12.36964    2.50264
       O     8.49189  -12.67439    3.17501
      H1     9.30730  -12.65086    2.65765
       H     6.38681  -15.97638   -3.22018
       O     6.47719  -16.64223   -2.52996
      H1     5.68081  -16.71347   -2.13370
       H    -0.06402  -19.53443   -3.04009
       O     0.36128  -19.00793   -2.32483
      H1    -0.37381  -18.48906   -1.94203
       H    -2.70422  -14.97647   -1.04623
       O    -3.24508  -14.89022   -1.83476
      H1    -2.69756  -14.93469   -2.65637
       H     2.92050  -19.63994    0.51917
       O     3.75550  -19.15372    0.34794
      H1     4.11164  -19.64348   -0.42551
       H     2.34115  -12.01879   -1.39362
       O     2.65058  -12.42084   -0.56532
      H1     3.02683  -11.69005   -0.08818
       H    -0.91349  -14.81375    0.40284
       O    -1.45431  -15.54708    0.01544
      H1    -0.82324  -16.01766   -0.57730
       H    -3.42708  -16.42380   -6.27618
       O    -2.84841  -16.62850   -5.49437
      H1    -2.03813  -17.01016   -5.81923
       H    10.29211  -17.09056   -4.15124
       O     9.33360  -17.36437   -4.01557
      H1     8.78400  -16.53378   -3.94998
       H    -1.54912  -11.01395    1.91956
       O    -0.74950  -11.38255    2.31651
      H1    -0.76500  -11.57345    3.32337
       H    -1.80874  -16.01176    1.75113
       O    -1.85627  -16.10592    2.74817
      H1    -2.05714  -15.23412    3.09555
       H     3.07343  -15.40474   -1.71496
       O     4.04999  -15.35936   -1.77706
      H1     4.22067  -14.49527   -1.42879
       H     7.12863  -19.36337    1.99217
       O     8.04555  -19.53922    1.94079
      H1     8.31414  -19.53162    2.84262
       H    -0.15940  -12.89253    1.48567
       O     0.32787  -13.72574    1.26893
      H1     0.92643  -13.53131    0.59240
       H     5.52245  -17.10832    3.49589
       O     4.68841  -17.43487    3.24453
      H1     4.57895  -17.16258    2.33286
       H    -2.66872  -18.12787   -2.49508
       O    -2.25668  -17.76777   -1.65533
      H1    -2.79230  -16.94931   -1.53363
       H     4.55788  -10.59319    2.94064
       O     5.28358   -9.94790    3.08984
      H1     5.96955  -10.34110    3.68313
       H     1.89376  -18.01221   -3.14708
       O     2.72702  -17.63562   -3.41972
      H1     2.92314  -18.15380   -4.18406
       H     3.61572  -13.53736    4.30092
       O     2.91946  -13.44832    3.68853
      H1     2.70913  -14.30670    3.28227
       H    -0.00657  -18.56871   -5.50218
       O    -0.15230  -17.63368   -5.81746
      H1    -0.43675  -17.69454   -6.74438
       H     1.06584  -16.11947    5.94054
       O     1.17936  -17.07594    5.77063
      H1     1.01842  -17.21231    4.79854
       H     0.71526  -16.23277   -5.08893
       O     0.81646  -15.25040   -4.93582
      H1     0.00434  -14.83228   -5.26092
       H     4.43426   -9.58099   -4.67963
       O     4.00691  -10.10134   -3.98737
      H1     3.32525   -9.46846   -3.75252
       H     8.23493   -8.69392   -3.73696
       O     7.73377   -9.48191   -4.10023
      H1     7.16221   -9.85027   -3.39412
       H     2.88399  -17.75344   -6.70446
       O     3.64008  -18.20631   -6.31639
      H1     4.29411  -17.46015   -6.16048
       H    -2.93221  -11.09943   -1.23988
       O    -2.40076  -10.72074   -1.99553
      H1    -1.77941  -10.13213   -1.59460
       H     5.99929  -11.27659   -1.91282
       O     5.94986  -10.40385   -2.22625
      H1     5.11469  -10.36407   -2.71070

