156
frame 4 | Written by MDAnalysis XYZWriter (release 2.4.3)
       H    -5.37103   -2.91653  -11.18423
       O    -4.68425   -3.62565  -10.98737
      H1    -3.84976   -3.18710  -10.89303
       H    -6.98305    5.30697  -18.28006
       O    -6.27014    5.51484  -17.65221
      H1    -5.54711    5.52414  -18.25275
       H     1.75088    3.50232  -11.11627
       O     2.44403    2.91278  -10.71944
      H1     2.63117    3.28898   -9.82573
       H    -3.32637   -2.07765  -17.28077
       O    -2.84670   -2.79398  -16.83456
      H1    -2.85589   -2.51937  -15.89520
       H     6.11743    0.65753  -19.33787
       O     5.19110    0.67939  -19.03721
      H1     4.67945    1.07155  -19.77431
       H     0.81226   -3.93299  -10.95256
       O     0.80161   -3.86674  -10.03156
      H1    -0.10448   -4.30792   -9.86576
       H    -1.34879    6.25141  -13.27907
       O    -1.20826    5.24364  -13.30457
      H1    -1.46972    4.96406  -12.41595
       H     2.35485   -4.46329  -19.65808
       O     2.35954   -5.29322  -19.12083
      H1     2.80519   -5.87758  -19.78054
       H     2.90124    5.43468  -19.93451
       O     2.16842    5.47187  -19.29501
      H1     2.05940    6.34426  -18.93998
       H    -6.21417    6.03578  -15.50967
       O    -5.90813    5.71895  -14.63583
      H1    -5.08752    5.24464  -14.72395
       H    -2.70758    6.22720  -17.68031
       O    -2.75753    6.63234  -16.77824
      H1    -3.10162    7.52297  -16.75918
       H     2.25469    2.72604  -14.34204
       O     1.44957    3.17558  -14.04412
      H1     0.85183    2.42569  -13.85772
       H    -2.75228   -1.13055  -15.00199
       O    -2.63729   -1.82669  -14.40430
      H1    -2.47231   -1.37247  -13.52749
       H     0.40882    3.14781  -17.82690
       O     1.08983    3.09436  -18.58717
      H1     1.51587    3.93179  -18.75546
       H    -7.22129    0.80508  -12.84439
       O    -7.62642   -0.05554  -12.96554
      H1    -8.56968    0.03849  -12.81747
       H    -1.50849    1.15766  -10.58331
       O    -1.13765    1.97970  -10.98708
      H1    -1.94096    2.48343  -10.94727
       H    -3.90128    2.40857  -20.10892
       O    -3.15395    2.03588  -19.62373
      H1    -3.18638    2.60635  -18.85986
       H     1.51384   -0.60865  -16.10555
       O     1.78500   -0.69820  -17.04594
      H1     2.26144    0.12962  -17.23633
       H     4.40575   -1.48045  -13.30946
       O     5.37066   -1.64820  -13.54752
      H1     5.43720   -1.05494  -14.33333
       H     2.62810   -1.14042  -11.66160
       O     2.96324   -1.77138  -12.30018
      H1     3.09320   -2.61388  -11.90205
       H     2.66378    5.64394  -13.44428
       O     1.77192    5.76879  -13.10268
      H1     1.18504    5.12295  -13.55064
       H    -3.19633   -6.41665  -17.11537
       O    -3.81199   -5.69812  -17.29784
      H1    -3.37071   -4.86208  -17.16632
       H    -0.12486    0.36711  -14.27291
       O    -0.57919    1.15840  -14.02287
      H1    -1.08373    1.00711  -13.19589
       H    -4.40188   -1.39778  -18.93758
       O    -4.02128   -0.71226  -18.31895
      H1    -3.19931   -0.54568  -18.84136
       H     0.68696    0.27728   -9.84356
       O     1.40230    0.15997  -10.45422
      H1     1.95860    0.94426  -10.48913
       H     5.59478    0.74686  -16.73041
       O     5.99306    0.10498  -16.15094
      H1     6.70922   -0.29643  -16.68184
       H    -5.17941    0.77460  -18.70786
       O    -5.81821    1.49621  -18.46653
      H1    -5.65423    1.69163  -17.58059
       H     4.71664    1.84747  -13.00010
       O     4.12669    1.37054  -12.38990
      H1     3.58853    2.08262  -12.00877
       H    -3.66557    3.69940  -11.66748
       O    -3.14097    4.42122  -11.45530
      H1    -3.64717    5.14728  -11.04991
       H    -3.38129    0.43666  -12.30181
       O    -2.54500    0.00830  -12.46210
      H1    -2.19550   -0.20534  -11.55779
       H    -1.33977    3.23719  -16.36284
       O    -0.46618    3.64637  -16.45342
      H1    -0.03099    3.47932  -15.60474
       H     1.94714   -0.73741  -14.07579
       O     1.14736   -1.08137  -14.45813
      H1     0.74974   -1.80294  -13.95585
       H    -2.95621    5.37123  -15.49107
       O    -3.26630    4.61448  -14.98506
      H1    -2.80885    4.65746  -14.11752
       H    -4.52134    0.91364  -10.47066
       O    -4.40711    1.73813  -11.07593
      H1    -5.24749    1.95620  -11.44576
       H    -6.59438    3.65955  -16.51604
       O    -6.98007    2.76801  -16.24392
      H1    -7.84428    2.73845  -16.58683
       H    -2.25370   -0.45257   -9.09907
       O    -1.74444   -0.57757   -9.87902
      H1    -1.35779   -1.44952   -9.81949
       H    -1.49459   -0.01557  -16.74579
       O    -2.08294    0.50359  -16.16096
      H1    -1.58712    0.81323  -15.39747
       H    -2.81499    2.25399  -16.88636
       O    -3.11256    3.12666  -17.10044
      H1    -3.20031    3.60021  -16.28634
       H     0.29586   -0.82707  -17.80600
       O    -0.62878   -1.13372  -18.02481
      H1    -0.72112   -2.07691  -17.87738
       H    -4.10132   -6.03677  -15.21779
       O    -4.24258   -6.60750  -14.44711
      H1    -5.17578   -6.52147  -14.26864
       H     5.00547    4.27187  -17.02156
       O     4.11290    4.17879  -16.60702
      H1     3.49101    4.57128  -17.22764
       H    -2.13432    5.11531  -19.22489
       O    -1.28757    5.50771  -19.03599
      H1    -0.82145    4.81803  -18.59586
       H     1.40350   -3.49008  -12.89170
       O     0.45740   -3.34081  -13.07570
      H1     0.29595   -3.98862  -13.74222
       H    -6.21641   -3.01778  -14.38711
       O    -5.69465   -3.64861  -13.90458
      H1    -4.83989   -3.36529  -14.05230
       H     4.15317    0.81529  -15.13515
       O     3.51481    1.49038  -15.19600
      H1     3.84583    2.19541  -15.75926
       H    -0.56624   -6.79830  -18.84701
       O    -0.79693   -6.00543  -18.30523
      H1    -0.05383   -5.40685  -18.39573
       H     2.92872   -3.74030  -16.38588
       O     2.98299   -4.69479  -16.39244
      H1     3.00154   -4.90747  -17.33518
       H     3.16987   -1.38283  -16.67262
       O     3.93164   -1.91525  -16.38762
      H1     4.76141   -1.35336  -16.45837
       H    -1.77818   -8.77192  -16.48270
       O    -2.06311   -7.86911  -16.21603
      H1    -1.46535   -7.30016  -16.74705
       H     0.04491   -6.14395  -14.47540
       O     0.80446   -5.56017  -14.60027
      H1     1.23687   -5.66253  -15.42624
       H    -7.40326    3.65214  -14.78469
       O    -7.93213    3.84681  -13.99340
      H1    -7.80055    4.79134  -13.91771
       H     4.43608   -2.43026  -18.39150
       O     4.27828   -1.91796  -19.20539
      H1     4.57430   -1.00300  -19.07640

