156
frame 11 | Written by MDAnalysis XYZWriter (release 2.4.3)
       H    -4.99047   -9.29681  -17.83055
       O    -5.81863   -9.63764  -18.20333
      H1    -5.91143   -9.09993  -18.95541
       H    -4.21480  -13.81376  -13.93265
       O    -4.23606  -13.80708  -13.01831
      H1    -3.58950  -14.50222  -12.74808
       H    -0.41783  -18.97415  -15.43164
       O     0.53019  -18.75632  -15.48090
      H1     0.89403  -19.63537  -15.18802
       H    -2.21412   -8.12046  -14.92773
       O    -1.32849   -8.46402  -14.96119
      H1    -0.99861   -8.25959  -15.88688
       H     4.00160  -16.98457  -17.65368
       O     3.45680  -16.21855  -18.01153
      H1     2.49812  -16.44441  -17.89392
       H     4.59212  -12.93109  -13.65829
       O     3.70881  -12.82028  -13.20111
      H1     3.40876  -11.90765  -13.24566
       H    -4.26722  -17.85668  -13.62965
       O    -4.97098  -17.20675  -13.38507
      H1    -4.66553  -16.70779  -12.60945
       H    -0.55181   -6.76771  -10.12535
       O    -1.00150   -7.62590  -10.46281
      H1    -1.89783   -7.33339  -10.61856
       H    -3.00053  -14.85259  -18.10168
       O    -2.78450  -13.94456  -18.32607
      H1    -2.16916  -14.01333  -19.05113
       H     3.71085  -11.56252  -17.70156
       O     3.01106  -11.15778  -18.24286
      H1     2.18277  -11.61345  -18.17846
       H    -6.42952  -11.93652  -16.43733
       O    -5.85134  -11.66314  -15.68741
      H1    -6.40263  -11.27734  -15.00946
       H    -5.44939  -17.83734  -16.01829
       O    -5.50617  -16.84542  -16.06557
      H1    -5.23611  -16.55397  -15.14558
       H    -2.26859  -16.86859  -10.84940
       O    -2.73226  -17.72124  -10.52651
      H1    -2.29078  -17.85755   -9.64901
       H    -5.61582   -9.56103  -11.60418
       O    -5.92079   -9.94129  -10.74430
      H1    -6.55041   -9.25382  -10.46674
       H     4.21984   -9.13753  -17.93299
       O     4.32372   -8.24030  -18.27591
      H1     5.20870   -7.88877  -18.13687
       H    -0.95107  -14.36662  -15.62037
       O    -0.55694  -15.21371  -15.87813
      H1    -0.26785  -15.61798  -15.04283
       H     0.11079  -16.36445  -17.36564
       O     0.66194  -16.98930  -17.80101
      H1     0.93001  -17.61836  -17.09253
       H     0.41371  -17.55364  -13.88140
       O     0.40060  -16.66478  -13.45804
      H1     1.33695  -16.39992  -13.26543
       H     3.13717  -11.42548   -8.49736
       O     2.93680  -11.32550   -9.44017
      H1     1.99287  -11.35023   -9.66094
       H    -6.76168  -13.23865  -12.98578
       O    -7.63271  -13.43972  -13.39917
      H1    -8.22845  -13.12791  -12.70354
       H    -0.52055   -5.76463  -17.27658
       O    -0.49314   -4.81831  -17.56807
      H1    -0.72717   -4.38705  -16.75982
       H    -3.78063  -13.68147  -16.28834
       O    -4.28002  -14.11371  -15.62995
      H1    -5.13518  -13.66429  -15.72121
       H    -1.51628  -13.72394   -9.44202
       O    -0.93185  -13.62554  -10.20370
      H1    -0.45863  -12.73849  -10.23142
       H    -0.77430  -12.97176  -18.06111
       O    -0.16579  -12.25063  -17.90945
      H1    -0.63514  -11.49628  -18.15873
       H    -3.54198  -12.33789  -19.11247
       O    -4.39819  -11.89541  -19.32677
      H1    -4.33036  -11.05513  -18.90088
       H    -1.01837  -15.76263  -12.39121
       O    -1.83205  -15.41293  -12.01013
      H1    -1.57069  -14.75679  -11.39925
       H     2.46732   -7.75297  -11.19089
       O     2.33408   -6.98802  -11.78131
      H1     1.46971   -7.14059  -12.15341
       H     0.34017  -11.27330  -11.40351
       O     0.56626  -11.36415  -10.45731
      H1     0.08473  -10.71158   -9.88717
       H    -4.12018  -11.19810  -16.12014
       O    -3.22431  -10.90838  -15.83437
      H1    -3.15244  -10.00002  -16.07245
       H     2.48172  -15.54849  -14.38023
       O     2.67652  -15.33440  -13.47188
      H1     2.96027  -14.42192  -13.60866
       H    -1.14673   -8.94254   -9.18874
       O    -0.85167   -9.72853   -8.69511
      H1    -1.55717   -9.96995   -8.02348
       H     2.94596   -9.68215  -12.73506
       O     2.69078  -10.28354  -13.45908
      H1     1.74156  -10.12311  -13.52614
       H    -2.41985  -16.20516  -16.70608
       O    -3.03264  -16.52864  -17.35863
      H1    -3.92437  -16.53412  -16.90550
       H    -3.40033  -12.44015  -11.95318
       O    -3.04137  -11.57732  -11.73181
      H1    -2.07472  -11.74843  -11.92754
       H    -4.20572   -7.02077  -10.52839
       O    -3.67819   -7.52477  -11.08441
      H1    -4.13326   -7.77022  -11.89122
       H    -3.94841   -9.66002  -13.27032
       O    -4.63685   -9.01331  -13.13953
      H1    -4.92580   -8.71419  -14.02433
       H     0.04926   -9.66815  -19.40782
       O    -0.63553   -9.83132  -18.73527
      H1    -1.42239   -9.70679  -19.22869
       H     3.25878   -7.42382  -14.69320
       O     3.96564   -7.33345  -14.00532
      H1     3.48864   -7.19502  -13.09883
       H    -7.03710  -16.32376  -18.96165
       O    -6.49577  -15.72220  -18.42112
      H1    -6.18254  -16.27637  -17.69897
       H    -2.50976  -19.71026  -15.88344
       O    -2.27324  -18.75316  -15.73182
      H1    -2.64950  -18.16378  -16.41589
       H     2.32041  -14.83518  -10.02376
       O     1.61176  -15.15450   -9.51018
      H1     0.88856  -14.50344   -9.69657
       H     3.58152  -13.02072   -9.99110
       O     3.86654  -13.88329  -10.31493
      H1     3.81544  -13.82124  -11.26858
       H    -3.28083   -7.36005  -17.62416
       O    -3.29442   -8.32755  -17.57510
      H1    -2.83462   -8.50814  -18.45048
       H    -5.04675   -6.93314  -15.72816
       O    -5.39922   -7.78167  -15.65947
      H1    -6.30244   -7.77962  -15.95842
       H     3.10837   -7.53871  -16.98781
       O     2.42912   -7.35571  -16.29228
      H1     2.42208   -6.39285  -16.23106
       H    -0.67608  -12.02562  -15.83193
       O    -1.08365  -12.32423  -15.01454
      H1    -1.95808  -11.86913  -15.07819
       H    -6.71760  -13.72490  -18.42722
       O    -6.93913  -12.76124  -18.24798
      H1    -6.07212  -12.28957  -18.30173
       H    -0.55643   -7.44468  -12.10691
       O    -0.21121   -7.20912  -12.98679
      H1    -0.57643   -7.71005  -13.70931
       H    -3.68182  -11.77459  -10.07913
       O    -3.93957  -11.91404   -9.12171
      H1    -4.87310  -11.66056   -9.19281
       H    -0.25921   -8.32298  -17.81047
       O    -0.20481   -7.55087  -17.27629
      H1     0.69475   -7.50658  -16.93324
       H    -0.43483  -11.32204  -13.81681
       O    -0.14957  -10.75493  -13.05943
      H1    -0.72096   -9.99018  -12.95007
       H     6.41273  -14.37323  -17.42369
       O     5.54362  -14.40463  -17.00695
      H1     4.84976  -14.62276  -17.66822

