156
frame 11 | Written by MDAnalysis XYZWriter (release 2.4.3)
       H   -18.82859    0.57956   -3.59820
       O   -19.05928    1.32947   -4.13654
      H1   -18.24360    1.47225   -4.62790
       H   -16.35478   -1.27812  -10.00137
       O   -15.54736   -0.94752  -10.36378
      H1   -15.00529   -0.57364   -9.64318
       H   -12.89188    3.43911   -4.45466
       O   -12.27952    3.17160   -5.20725
      H1   -11.80688    2.42965   -4.82738
       H   -11.36809   -0.60585  -10.21244
       O   -11.44970    0.23091   -9.72956
      H1   -11.74976    0.94997  -10.34226
       H   -16.20720   -5.14569   -2.28255
       O   -16.41210   -4.38992   -2.94842
      H1   -17.40226   -4.51115   -3.20509
       H   -18.68951   -2.76224  -12.07914
       O   -18.25456   -3.33015  -12.76556
      H1   -18.99700   -3.82677  -13.20633
       H   -17.86309   -0.70781  -14.36478
       O   -17.17861   -0.86099  -13.68471
      H1   -17.23825   -1.74048  -13.29403
       H   -16.77486   -7.21153   -2.02046
       O   -16.16364   -6.71595   -1.43527
      H1   -15.30724   -7.20343   -1.53015
       H   -16.31752   -5.35305   -5.06729
       O   -16.80637   -6.08718   -5.43039
      H1   -17.71792   -5.84749   -5.24492
       H   -14.39043   -2.30032  -11.20164
       O   -13.82936   -3.02973  -11.40359
      H1   -14.27365   -3.38991  -12.21154
       H   -17.54633    2.04758   -9.83811
       O   -16.72818    2.53949   -9.82305
      H1   -16.91033    3.37993  -10.26393
       H   -16.40506   -4.14235  -12.62166
       O   -15.61462   -4.59118  -13.01034
      H1   -15.49102   -5.39796  -12.44597
       H   -12.99135   -6.09873  -10.85701
       O   -12.17521   -5.90609  -10.29025
      H1   -12.03026   -4.97496  -10.37601
       H   -13.75634   -3.42242   -4.82134
       O   -14.04454   -4.13484   -4.25263
      H1   -14.87412   -3.85892   -3.83513
       H   -12.73881   -2.11077   -0.03167
       O   -11.95795   -2.16167   -0.67977
      H1   -11.26495   -2.05619   -0.02439
       H   -19.86236   -2.17811  -10.77220
       O   -18.94572   -1.92757  -10.45651
      H1   -18.55338   -2.81341  -10.11319
       H   -11.68150   -9.18264   -6.32607
       O   -12.33334   -9.12341   -5.57656
      H1   -12.74454   -8.20556   -5.62879
       H   -15.69551   -4.02756   -8.39247
       O   -15.42861   -4.72931   -9.02145
      H1   -14.78771   -4.31199   -9.59308
       H   -17.47972   -3.04882   -6.90514
       O   -16.65812   -3.49297   -6.87920
      H1   -15.97576   -2.87117   -6.53882
       H   -14.64251    2.61046   -9.82203
       O   -13.85662    2.82121  -10.27453
      H1   -13.20710    3.12136   -9.64502
       H   -18.07004   -4.80186  -10.92255
       O   -18.05996   -4.35397  -10.08021
      H1   -17.33604   -4.55658   -9.47004
       H   -13.90410    1.13048   -7.93779
       O   -13.80296    0.22888   -8.17292
      H1   -12.98292    0.21651   -8.66266
       H   -13.74752   -7.79218   -8.32819
       O   -14.62455   -7.43246   -7.99495
      H1   -14.79151   -6.48544   -8.31660
       H   -19.81038   -5.37566   -4.89415
       O   -19.01377   -4.85371   -4.92166
      H1   -19.22752   -4.04173   -5.44626
       H   -16.21037    2.09430   -2.55636
       O   -15.42043    1.83677   -3.07038
      H1   -15.71166    1.99690   -3.99063
       H   -13.71648   -6.97277   -6.59149
       O   -13.03724   -6.65896   -5.93202
      H1   -13.57140   -6.07601   -5.33990
       H   -18.97433   -1.74023   -4.89651
       O   -19.22161   -2.21363   -5.74216
      H1   -19.40644   -1.50004   -6.40868
       H   -14.05165    3.05633   -6.38535
       O   -14.42105    2.76296   -7.19937
      H1   -14.60096    3.56762   -7.70981
       H   -13.50737   -1.09526   -3.78423
       O   -14.46159   -0.92987   -3.65580
      H1   -14.66868   -0.03568   -3.42247
       H   -11.65451   -6.22679   -7.09090
       O   -11.04888   -5.77582   -7.65688
      H1   -11.43529   -5.88467   -8.52749
       H   -18.98402   -7.24533  -11.64004
       O   -18.65679   -6.44392  -12.06907
      H1   -19.29518   -6.14726  -12.75478
       H   -17.06659    3.09409   -5.74968
       O   -16.76281    2.22997   -5.54683
      H1   -16.17046    2.11219   -6.25402
       H   -16.56786    1.71305  -11.29522
       O   -16.89596    1.51429  -12.24519
      H1   -16.82099    0.50356  -12.21648
       H   -12.64679   -4.63919   -2.47758
       O   -12.19336   -5.27195   -1.86228
      H1   -11.71808   -4.73764   -1.26312
       H   -17.53151   -8.24792   -8.27999
       O   -18.05821   -8.00900   -7.52157
      H1   -17.52347   -7.37376   -7.05283
       H   -14.34576   -0.77728   -6.85763
       O   -14.78008   -1.57216   -6.42432
      H1   -14.71864   -1.48014   -5.47453
       H   -10.36856   -1.06024   -4.71157
       O    -9.70337   -0.77511   -5.31367
      H1    -9.67525   -1.48619   -5.96552
       H   -11.20823   -2.77031   -9.42002
       O   -11.00108   -2.92368  -10.32142
      H1   -11.86943   -2.73525  -10.70147
       H   -15.61567   -8.02643   -9.29484
       O   -16.25437   -7.98155   -9.99449
      H1   -16.11321   -8.82033  -10.52696
       H   -18.82095   -1.90474   -0.03382
       O   -19.63929   -1.35753    0.10588
      H1   -19.64077   -0.91467    0.94732
       H   -17.02665   -3.48283   -0.58680
       O   -17.19068   -2.57739   -0.44767
      H1   -16.43637   -2.21210   -0.91900
       H    -8.54440   -3.16960   -7.16321
       O    -9.12547   -2.44301   -7.41875
      H1    -8.74328   -2.08970   -8.25817
       H   -19.61503   -0.89014   -2.27397
       O   -18.84250   -1.15121   -2.73529
      H1   -18.14768   -1.48040   -2.14979
       H   -14.83683   -1.19248   -1.74421
       O   -15.15465   -1.09893   -0.82229
      H1   -15.37174   -0.19536   -0.67311
       H   -12.89845   -8.23968   -1.88841
       O   -13.43899   -7.51215   -1.50481
      H1   -12.98917   -6.70333   -1.63710
       H   -17.46496   -9.74081   -7.06140
       O   -17.04915  -10.60152   -6.86887
      H1   -16.09376  -10.43793   -6.86310
       H   -18.51412   -7.91132   -3.15445
       O   -17.54579   -8.02309   -3.23122
      H1   -17.28151   -7.62502   -4.12736
       H   -12.00622   -7.90746   -9.36901
       O   -12.51046   -8.64377   -8.93309
      H1   -12.46881   -9.37758   -9.54709
       H   -11.66684   -0.29826   -3.32943
       O   -11.67857   -1.26324   -3.37459
      H1   -11.74288   -1.56492   -2.43595
       H    -9.74933    0.55209   -7.42101
       O    -8.91402    0.65727   -7.88345
      H1    -8.35325    1.27168   -7.33552
       H   -11.64389   -3.95067   -7.29606
       O   -11.65281   -3.04374   -7.56864
      H1   -10.73126   -2.78548   -7.63216
       H   -14.85854   -7.43600  -10.86732
       O   -14.34788   -6.88248  -11.46994
      H1   -14.19300   -7.44646  -12.24303

