156
frame 8 | Written by MDAnalysis XYZWriter (release 2.4.3)
       H    -6.32800  -16.89236   10.02289
       O    -5.88499  -16.39435    9.36692
      H1    -5.26541  -16.99677    8.93990
       H    -0.42735  -16.43465    2.71999
       O     0.52283  -16.72059    2.83900
      H1     1.00676  -16.00390    2.39873
       H     1.11591  -14.35384    7.85280
       O     1.33956  -13.93454    8.68461
      H1     1.73513  -13.04520    8.34742
       H     7.82357  -14.13504    5.66841
       O     7.49724  -14.90187    5.19491
      H1     7.68210  -14.75324    4.26854
       H     1.56443  -13.94155    1.64054
       O     1.89156  -14.50451    2.32206
      H1     2.85205  -14.37105    2.25792
       H     0.24651  -12.14763   11.22637
       O     0.68811  -12.99789   11.30210
      H1     0.86660  -13.22179   10.37193
       H    -7.10638  -15.18882    6.59210
       O    -6.33684  -15.16628    5.93246
      H1    -6.67096  -15.63007    5.18765
       H     2.98151  -19.22635   12.83792
       O     2.48868  -18.59698   13.38818
      H1     3.06354  -18.44646   14.17255
       H     2.81429  -11.87558    3.23469
       O     2.99085  -11.25295    2.50155
      H1     2.09532  -10.75479    2.33202
       H     4.58463  -18.07396    3.27222
       O     5.13361  -18.24514    2.45320
      H1     4.67284  -17.69451    1.80997
       H    -0.63363  -13.30202    4.48339
       O    -0.14484  -13.14864    5.33274
      H1     0.81849  -13.00454    5.15427
       H     4.42899  -15.18316    1.60256
       O     4.72823  -14.47568    2.18060
      H1     5.29567  -14.05207    1.53827
       H     5.62620  -12.24991    9.57722
       O     4.98098  -12.95973    9.41910
      H1     5.52648  -13.71985    9.14135
       H    -2.06595  -16.35704    8.47311
       O    -2.11010  -15.79739    7.62699
      H1    -2.26229  -16.45190    6.95609
       H    -4.66076  -15.58901   10.63848
       O    -4.56461  -15.06270   11.46547
      H1    -3.73865  -15.18841   11.96456
       H     4.27914  -18.02854    7.03746
       O     4.35943  -17.72161    7.93720
      H1     4.53995  -18.52794    8.45885
       H    -1.30127  -18.03952    9.53659
       O    -1.97798  -17.40715    9.78431
      H1    -2.17899  -17.34037   10.73577
       H    -2.13925  -17.38064    4.69371
       O    -1.78994  -17.41979    5.58869
      H1    -0.81057  -17.62045    5.50430
       H    -4.25114  -18.95582    8.14433
       O    -4.32660  -18.57470    9.02080
      H1    -3.46941  -18.29571    9.30477
       H    -0.83348  -10.13191    8.06859
       O    -1.32218  -10.75579    7.48666
      H1    -0.69637  -11.38682    7.06220
       H    -5.29703  -15.52583    0.44759
       O    -4.71102  -15.26163   -0.28012
      H1    -3.81463  -15.49681   -0.00065
       H     2.66376  -16.65859    0.72994
       O     3.57622  -16.50547    0.55047
      H1     3.65142  -16.32306   -0.38060
       H     4.07029  -17.23509    4.92259
       O     3.86803  -18.20565    4.98440
      H1     2.90770  -18.19131    4.84139
       H     5.10433  -12.13012    6.48536
       O     4.22567  -12.36564    6.88940
      H1     4.45989  -12.58036    7.83658
       H    -2.99288  -14.74648    6.39096
       O    -3.51742  -14.57808    5.60228
      H1    -4.37146  -14.98474    5.86458
       H     3.19050  -17.31731   12.41035
       O     3.77971  -16.65595   11.93305
      H1     3.18298  -16.17764   11.33820
       H    -1.79099  -15.15146    0.28220
       O    -2.20875  -16.02956    0.31365
      H1    -1.98944  -16.59906   -0.44387
       H    -0.69591  -13.48408   12.31314
       O    -1.31147  -13.36415   13.08427
      H1    -2.10821  -12.92753   12.69289
       H    -2.22583  -16.43553    1.94232
       O    -2.14789  -16.54484    2.94631
      H1    -2.45206  -15.67848    3.30829
       H    -1.00618  -20.14930   12.83568
       O    -1.62047  -19.45762   12.50499
      H1    -1.34673  -18.72309   13.04025
       H    -0.30818  -15.54557    6.89422
       O     0.62394  -15.44669    6.69187
      H1     0.59602  -14.89640    5.93457
       H    -4.48298  -18.01022    1.87463
       O    -4.90715  -18.66070    2.38370
      H1    -5.64234  -18.26872    2.86149
       H     0.03105   -8.61157    5.90403
       O     0.68564   -9.20717    5.53633
      H1     0.92384   -9.79416    6.25172
       H     0.44267  -18.70514    8.11856
       O    -0.10257  -19.13943    8.73472
      H1    -0.29944  -19.97714    8.29363
       H    -1.03632  -13.23602   -0.66463
       O    -0.68037  -13.91269    0.00138
      H1     0.11792  -14.20236   -0.49422
       H     2.93120  -11.07490    7.58833
       O     2.03171  -10.99064    7.83915
      H1     1.98406  -10.10163    8.26465
       H     4.58467  -15.01853    5.44432
       O     4.07788  -15.37090    4.68507
      H1     4.66379  -15.05581    3.95946
       H    -2.24003  -18.37473   -2.10621
       O    -1.60428  -18.15521   -1.36350
      H1    -1.64149  -18.84876   -0.68396
       H     0.17616  -16.68309   -2.90522
       O     0.56899  -16.45926   -2.09405
      H1     0.08172  -17.20339   -1.51602
       H     3.55951  -16.29646    8.71993
       O     3.21407  -15.70206    9.39005
      H1     2.44900  -15.28024    9.00759
       H     0.26799   -9.89499    3.54054
       O     0.47907  -10.26593    2.72283
      H1    -0.35212  -10.57248    2.32813
       H     2.84319  -12.42383    5.61488
       O     2.40928  -12.80102    4.85055
      H1     2.81796  -13.69508    4.69634
       H     0.47853  -17.85573    1.17738
       O     0.87922  -18.18552    0.33735
      H1     1.70205  -18.70902    0.62734
       H     1.04904  -17.13484    5.69093
       O     1.05166  -17.94044    5.15300
      H1     0.90366  -17.64886    4.26357
       H     7.19599  -15.09359    8.30300
       O     7.28284  -14.18515    8.57308
      H1     7.23610  -14.17975    9.49124
       H    -2.15919  -12.78756    2.74869
       O    -2.10066  -13.50935    3.36906
      H1    -2.91167  -13.42369    3.88689
       H    -4.65257  -11.99203    6.80824
       O    -5.17586  -11.51064    6.12012
      H1    -5.34004  -12.09566    5.34466
       H    -2.93227  -18.85411    6.32814
       O    -3.44290  -19.61000    6.57821
      H1    -2.76347  -20.19817    6.90322
       H    -3.02020  -11.48619    8.29561
       O    -3.93808  -11.82874    8.51134
      H1    -4.42366  -10.99559    8.44370
       H     2.50486  -13.29499   11.67312
       O     3.45239  -13.12096   11.78449
      H1     3.84836  -13.14693   10.89993
       H     6.81779  -17.99318   11.29253
       O     6.15422  -17.45776   10.80758
      H1     5.41151  -17.17957   11.32703
       H     6.63933  -16.63602    6.56917
       O     6.91208  -16.73806    7.48582
      H1     6.12153  -17.18700    7.82956

