156
frame 10 | Written by MDAnalysis XYZWriter (release 2.4.3)
       H   -18.23528   12.32867   -8.96235
       O   -18.35041   11.35197   -8.77259
      H1   -19.24938   11.11338   -9.03627
       H   -10.29443    8.55544  -10.95782
       O    -9.65235    8.28093  -11.63468
      H1    -9.95690    7.38547  -11.86865
       H    -8.37331   11.96051  -12.66979
       O    -8.61633   12.82820  -12.97498
      H1    -9.08865   13.18314  -12.24232
       H   -18.11925   13.23430   -5.83889
       O   -18.50277   14.09459   -5.66516
      H1   -19.25391   14.04601   -6.23627
       H   -14.42976   12.20572  -10.03691
       O   -14.72973   12.42983   -9.12129
      H1   -15.33051   13.16944   -9.18369
       H   -13.92275   12.03509  -12.27202
       O   -14.22318   11.25393  -11.66297
      H1   -15.20701   11.36014  -11.63435
       H   -15.85336   16.73074  -12.04080
       O   -16.16957   17.55971  -12.51294
      H1   -16.62923   18.19334  -11.93802
       H   -10.34780   10.37575   -7.08230
       O   -10.44995    9.42897   -6.82376
      H1   -10.56650    9.38625   -5.86827
       H   -10.75573   17.42794  -10.46193
       O   -11.27265   17.65938  -11.24249
      H1   -10.62850   17.62941  -11.94699
       H   -13.07138   15.61819   -3.62666
       O   -13.81280   15.20278   -3.16779
      H1   -14.57075   15.82946   -3.11375
       H   -14.04100    8.23018  -11.49139
       O   -13.62178    8.75859  -12.17851
      H1   -13.77490    9.70612  -12.07450
       H   -16.44090   17.88829  -14.31770
       O   -16.40509   17.67192  -15.28198
      H1   -17.01148   18.37094  -15.67269
       H   -14.21295   14.14175   -4.56182
       O   -14.37416   13.40642   -5.16625
      H1   -13.64313   13.32955   -5.84506
       H   -11.96201    8.94817   -7.22143
       O   -12.79024    8.59405   -7.60424
      H1   -13.43317    9.21132   -7.31357
       H   -12.21386    8.83741   -9.32029
       O   -11.91943    8.69926  -10.20536
      H1   -12.65519    8.90445  -10.77173
       H   -11.09358   15.64484  -13.58653
       O   -11.25862   14.67011  -13.34130
      H1   -10.81622   14.11491  -13.99566
       H   -11.21844   16.03755   -4.83330
       O   -11.99814   16.52206   -5.08416
      H1   -11.65678   17.45987   -5.04714
       H   -16.09182   17.59236   -2.49948
       O   -16.26047   16.71048   -2.89967
      H1   -16.51071   16.97705   -3.79470
       H   -14.08230   13.36033   -2.33669
       O   -13.85682   12.78008   -1.56877
      H1   -14.11143   11.90966   -1.88267
       H    -9.54951   17.33883   -7.99250
       O   -10.24155   17.48449   -8.63920
      H1   -11.08141   17.09785   -8.25327
       H   -17.02610   13.27265  -12.47396
       O   -17.76454   13.22431  -11.84064
      H1   -18.13813   14.04440  -12.01110
       H   -19.02254    9.01522   -5.90709
       O   -19.96162    8.94618   -5.71604
      H1   -20.13560    8.31408   -5.07676
       H   -14.46708    6.74235   -9.21681
       O   -15.07602    7.41670   -9.64873
      H1   -15.45374    6.96541  -10.41680
       H   -12.90784   13.85585  -13.65760
       O   -13.62578   13.26369  -13.47863
      H1   -14.40714   13.70525  -13.81965
       H   -17.06047    9.50697   -3.59594
       O   -16.77011    8.69743   -4.04964
      H1   -17.28639    8.56302   -4.88338
       H   -17.22388   13.56587  -10.23009
       O   -17.05486   13.80064   -9.33546
      H1   -17.11518   14.73237   -9.16134
       H   -11.72978    6.85795   -9.98371
       O   -11.51425    5.91743   -9.85122
      H1   -10.75208    5.97180   -9.25695
       H   -14.83406   15.71759  -10.39428
       O   -14.95339   15.36279  -11.34434
      H1   -14.12351   14.98656  -11.70133
       H   -17.63275    7.46701   -7.34352
       O   -16.99735    7.71299   -6.66537
      H1   -16.43143    8.39279   -6.97141
       H   -17.65266   13.58007   -2.15655
       O   -17.96323   12.74934   -2.69125
      H1   -17.89752   13.03124   -3.59006
       H   -15.64685    6.23273  -12.52887
       O   -16.38633    6.60865  -11.94827
      H1   -16.77547    5.87125  -11.49957
       H   -13.29221   16.24023   -8.05611
       O   -12.48535   15.97924   -7.63050
      H1   -12.48799   16.32790   -6.72502
       H   -16.17941   12.07424  -15.45108
       O   -15.85524   11.14339  -15.40811
      H1   -15.24979   11.06812  -14.65023
       H   -10.23711   12.22612   -8.93382
       O   -10.28747   11.79995   -8.03785
      H1   -11.10771   12.15867   -7.73013
       H   -18.28086   17.69313   -4.68811
       O   -17.40285   17.83067   -5.03472
      H1   -17.37058   17.11162   -5.75390
       H   -16.65564   19.61994   -9.48928
       O   -16.48136   19.09483   -8.67216
      H1   -15.92879   19.69178   -8.10811
       H   -13.23630   12.94814   -7.99503
       O   -12.60823   13.18815   -7.29491
      H1   -12.43069   14.15662   -7.38844
       H   -17.77286   17.80007   -8.43202
       O   -18.11793   16.87708   -8.55267
      H1   -18.93788   16.86233   -7.98615
       H   -15.60201   17.32319   -8.88938
       O   -15.04123   16.48792   -8.82161
      H1   -15.38277   15.92722   -8.15376
       H    -6.83584   12.25576   -7.28314
       O    -7.41875   13.02467   -7.15686
      H1    -8.35230   12.81275   -7.52846
       H   -17.67531   11.39253   -6.90428
       O   -17.46638   11.56071   -5.97476
      H1   -16.64991   11.11769   -5.81008
       H   -17.92523   16.66198  -12.27438
       O   -18.59648   15.95360  -12.31936
      H1   -18.84970   15.80698  -13.24993
       H   -15.84167   14.17004  -15.24581
       O   -16.34203   13.79551  -14.51490
      H1   -17.09675   13.51288  -14.97360
       H   -17.33224   10.25258   -9.94578
       O   -16.96536    9.83369  -10.78280
      H1   -17.06239    8.87467  -10.74908
       H   -11.78062   14.79515  -11.41860
       O   -12.11880   14.89156  -10.52983
      H1   -11.96182   15.80623  -10.40639
       H   -13.87833   17.78199  -14.90240
       O   -13.47736   18.08362  -14.08023
      H1   -14.11284   17.86909  -13.39101
       H   -13.80482    8.09962  -14.00100
       O   -13.91767    7.72221  -14.91719
      H1   -14.90250    7.70552  -14.99879
       H   -19.39145    8.20228   -8.93223
       O   -18.95909    7.39109   -8.64809
      H1   -18.55004    6.86692   -9.33924
       H   -10.39047   13.96119   -9.98533
       O    -9.68178   13.36792  -10.31924
      H1    -8.88532   13.87210  -10.00432
       H   -13.40321    6.97921   -6.19341
       O   -13.61981    6.20656   -5.66412
      H1   -14.42422    6.60142   -5.25125
       H   -15.36877    9.18953   -8.99491
       O   -15.47594    9.81457   -8.28288
      H1   -15.38934   10.71399   -8.54272
       H   -15.44428   14.56854   -6.02485
       O   -16.15885   14.97245   -6.54162
      H1   -17.00850   14.74766   -6.11242

