156
frame 7 | Written by MDAnalysis XYZWriter (release 2.4.3)
       H     7.87347   -0.82570    0.11050
       O     8.27423   -1.72705    0.01850
      H1     9.08249   -1.69153    0.61148
       H    17.86073    3.91387   -6.56214
       O    18.50202    4.08612   -5.84118
      H1    18.82931    3.25552   -5.52972
       H    11.23439   -2.34719   -0.50035
       O    11.38114   -2.32400   -1.45724
      H1    12.26816   -2.56839   -1.63023
       H    14.03936    4.76157    3.02724
       O    14.43196    4.43049    2.21929
      H1    14.68222    3.50501    2.24475
       H    18.50066   -5.76100   -4.22361
       O    19.43172   -5.89585   -3.95002
      H1    19.50166   -5.80624   -3.03984
       H    14.08845   -3.29862   -2.75125
       O    14.43618   -3.26909   -1.82459
      H1    14.38004   -4.19666   -1.57857
       H    12.54285   -1.62950   -9.16042
       O    11.74124   -1.62987   -8.54387
      H1    10.95200   -1.37703   -9.04714
       H    12.77244   -0.25124   -5.75803
       O    13.17625   -1.02816   -6.19125
      H1    12.76778   -1.13981   -7.07372
       H    14.10509    3.37994   -6.32646
       O    14.05015    3.72575   -5.39059
      H1    13.43843    4.46221   -5.28634
       H    17.11609    2.78564    1.41019
       O    17.55957    3.56975    1.06656
      H1    18.43123    3.24035    0.80778
       H    15.07761   -1.73206   -2.43474
       O    15.36868   -0.88030   -2.69254
      H1    15.10351   -0.23440   -2.00194
       H    12.63489   -6.51224   -1.11546
       O    13.17113   -5.74158   -0.89261
      H1    13.79287   -6.12755   -0.25856
       H    18.89936   -2.25712   -8.15163
       O    19.58780   -1.68349   -8.47556
      H1    19.89858   -2.35503   -9.14915
       H    14.78660    1.03453   -0.05933
       O    14.51538    1.68209   -0.76772
      H1    15.10787    2.40990   -0.55577
       H    15.49558    1.95568    3.26280
       O    15.67138    1.82486    2.33727
      H1    15.65845    0.91654    2.01558
       H    10.06990   -1.89275    2.31354
       O    10.39452   -2.17197    1.42322
      H1    10.65311   -3.07824    1.51142
       H    14.36143   -8.85994   -1.90606
       O    14.90650   -8.63626   -2.65851
      H1    15.53913   -7.98378   -2.33693
       H    12.09655   -8.44334   -0.97589
       O    11.42792   -7.78742   -1.24953
      H1    11.25935   -8.04763   -2.14118
       H    16.73786   -2.60916   -0.03211
       O    15.83867   -2.64808    0.44922
      H1    15.12784   -2.73349   -0.22046
       H    10.65744    1.43533   -2.34004
       O    10.20040    2.33193   -2.25053
      H1     9.27496    2.18466   -2.53027
       H    12.74119    0.57126   -1.35293
       O    12.15117    0.40971   -2.05230
      H1    11.99456   -0.54422   -2.00489
       H    19.53330   -3.47413    3.29560
       O    18.63808   -3.55106    2.90105
      H1    18.25010   -2.94708    3.53795
       H    16.86893   -4.25441   -3.87955
       O    16.71943   -5.14748   -4.23106
      H1    15.73132   -5.30093   -4.25186
       H    14.83081   -8.05402   -6.12023
       O    15.59802   -8.00795   -6.73025
      H1    15.86095   -7.10423   -7.00406
       H    11.99335   -5.12673    0.48941
       O    11.27618   -4.95149    1.08957
      H1    10.84627   -5.83775    1.10516
       H    12.07374    3.12060    0.99009
       O    11.61409    2.55642    1.64112
      H1    11.29309    3.17062    2.31922
       H    13.91372   -1.37254    3.84965
       O    14.18626   -0.46109    3.72715
      H1    13.35107    0.04652    3.65280
       H    16.37110    4.16078   -0.35278
       O    15.78579    4.12146   -1.13591
      H1    16.26746    3.84489   -1.91487
       H    16.81718   -3.18345   -7.54132
       O    16.41780   -2.72428   -8.27474
      H1    15.52297   -3.10401   -8.47113
       H    13.42774    1.99822   -4.76199
       O    12.91035    1.16899   -4.59255
      H1    12.86440    0.89761   -3.67042
       H    18.18469   -1.73205   -3.66209
       O    17.58501   -2.45586   -3.74615
      H1    16.75348   -2.07830   -3.53326
       H    15.55916    3.86943   -4.46062
       O    16.46050    3.97337   -4.02426
      H1    17.03823    3.73267   -4.77434
       H    13.58618   -6.06596   -9.05630
       O    14.07139   -5.28047   -9.00796
      H1    13.48005   -4.74683   -8.38083
       H    16.26901   -6.11742    0.02910
       O    15.58530   -5.73790    0.69039
      H1    15.92251   -4.84012    0.84940
       H     9.50097   -4.08934   -3.61877
       O    10.43502   -4.34729   -3.57977
      H1    10.82800   -4.20175   -2.77650
       H    15.17577   -1.00884    0.89505
       O    14.76238   -0.18185    1.03161
      H1    14.57532   -0.24057    1.96578
       H    19.32697   -2.16090   -0.77480
       O    18.71382   -2.51782   -0.10687
      H1    18.86782   -2.10351    0.75070
       H    11.52504   -4.64258   -7.09017
       O    11.97450   -4.11755   -7.80834
      H1    11.84229   -3.15737   -7.81394
       H    11.20283    2.09296   -5.47968
       O    10.41212    2.08142   -5.94405
      H1    10.75715    2.56048   -6.70438
       H    19.62823   -0.25846   -4.63448
       O    18.99480    0.25593   -4.14481
      H1    18.20301    0.25970   -4.70282
       H    15.98540   -0.09959   -5.73020
       O    16.50494    0.26530   -4.95825
      H1    15.98372    0.05962   -4.14881
       H    13.90619   -5.80560   -3.31301
       O    14.10216   -5.97329   -4.26590
      H1    13.30613   -5.78821   -4.77433
       H    11.74295   -3.03486   -4.15717
       O    12.73783   -2.99235   -4.16310
      H1    12.89312   -2.39712   -4.92706
       H    14.32184    2.38693   -8.73327
       O    14.63166    2.34975   -7.87091
      H1    14.97132    1.40548   -7.80636
       H    16.08482   -0.98722   -7.86114
       O    15.57427   -0.24228   -7.63567
      H1    14.75118   -0.53603   -7.19228
       H    17.95518   -6.38272   -1.28306
       O    17.16525   -6.90862   -1.16954
      H1    17.43306   -7.58261   -0.56358
       H    11.00913   -0.02086    3.94987
       O    11.77467    0.54167    3.72838
      H1    11.57937    1.01939    2.89411
       H     9.66027   -1.71212   -2.68087
       O     8.78373   -1.40293   -2.88868
      H1     8.32280   -1.48603   -2.04348
       H    11.00092   -5.49678   -5.00769
       O    11.33796   -5.83100   -5.81980
      H1    10.68728   -6.53231   -6.17384
       H    18.23743   -3.55407   -5.56615
       O    18.49151   -3.66750   -6.44951
      H1    18.21259   -4.61122   -6.63549
       H    13.21440    3.53961   -0.45228
       O    12.82766    4.22586    0.10098
      H1    13.43186    4.46778    0.83313
       H     9.51701    1.67308   -0.64105
       O     9.34920    1.28077    0.22935
      H1    10.15722    1.41389    0.80372

