156
frame 2 | Written by MDAnalysis XYZWriter (release 2.4.3)
       H    16.21427   12.76597    3.83408
       O    15.96905   12.34434    3.00454
      H1    16.85279   12.11419    2.55328
       H    17.08223    5.62004    5.13625
       O    17.75926    4.93915    5.13324
      H1    18.60534    5.48381    5.05865
       H    16.01230    8.38782   -7.00148
       O    15.98260    9.30293   -7.34758
      H1    15.33205    9.76127   -6.81579
       H    18.11633   10.70563    1.31252
       O    18.29350   11.62540    1.40530
      H1    18.99162   11.71750    2.00877
       H    12.90043    3.98408    1.57235
       O    13.32655    3.76932    0.74032
      H1    14.17501    3.30995    0.94207
       H    13.71197   15.24503    2.42882
       O    14.10252   14.42836    2.01061
      H1    14.57118   13.95585    2.71242
       H    15.06432    9.91818   -4.10978
       O    15.59321   10.73480   -4.24773
      H1    15.68773   11.12757   -3.37842
       H    19.96095   14.86110   -2.86596
       O    19.44258   15.33132   -3.52058
      H1    18.76451   15.80683   -2.95403
       H    12.98343    8.41771    1.43488
       O    13.13524    7.45575    1.40927
      H1    13.70997    7.34546    0.66550
       H    17.69468   15.54005    2.29488
       O    18.57708   15.35214    1.82344
      H1    18.47202   14.46162    1.48254
       H    18.66078   10.25205   -4.07533
       O    18.12243    9.82029   -3.43333
      H1    17.23495    9.82448   -3.76755
       H    15.98555    2.84646   -3.13512
       O    15.20231    3.15693   -3.63843
      H1    15.51829    4.00090   -4.04972
       H    15.33253   11.59976   -0.88450
       O    14.83655   11.00315   -0.30921
      H1    14.85745   11.30172    0.60732
       H    11.48837    8.15843   -1.34906
       O    11.61165    9.04153   -0.99035
      H1    10.86767    9.19442   -0.39160
       H    15.36160    4.53936   -5.98170
       O    15.85406    5.05581   -5.33582
      H1    16.50655    5.67271   -5.73915
       H    13.05784    5.38232    4.22237
       O    12.59552    4.74492    3.62453
      H1    11.65007    4.74253    3.96299
       H     9.90654    8.48853    4.09448
       O    10.14669    7.57834    4.24871
      H1    10.33343    7.30307    3.31684
       H     8.76995    9.45373    0.95353
       O     9.06439    9.47732    0.03593
      H1     8.73798   10.30381   -0.24816
       H    17.49977    8.89816    2.31180
       O    17.88768    8.52628    3.08018
      H1    18.75229    8.35506    2.74473
       H    18.03176    8.51407    4.85636
       O    18.34060    8.44675    5.76343
      H1    17.73521    8.08948    6.36086
       H    16.25392    9.48292    0.14720
       O    16.95502    9.04935    0.53788
      H1    16.89881    8.08173    0.35138
       H    12.80263   10.85697   -3.18793
       O    12.65357    9.90507   -3.39885
      H1    12.07689    9.67994   -2.70865
       H    17.60533   10.53030    5.29692
       O    18.10503   11.31440    5.05470
      H1    18.91920   11.20005    5.54447
       H    15.21083    7.26052    6.96639
       O    15.84740    7.01297    6.24157
      H1    15.57489    7.52170    5.49389
       H    14.63913   15.87199    0.87557
       O    14.65058   16.63694    0.23510
      H1    13.80089   16.58199   -0.20368
       H    17.16059   11.68601   -2.77429
       O    16.44094   12.12702   -2.27780
      H1    16.46097   13.05864   -2.64361
       H    16.99646   11.88704    7.95463
       O    16.63472   12.46106    7.22036
      H1    17.09323   12.23995    6.41816
       H    13.94000    7.53772    2.99173
       O    14.22209    7.68780    3.93493
      H1    13.36475    7.43552    4.35256
       H    18.99645    4.31427   -1.68927
       O    18.94736    5.31238   -1.58111
      H1    18.65261    5.62703   -2.44740
       H    11.97232    5.91832   -1.90819
       O    11.14953    6.43222   -2.07197
      H1    11.44851    6.75755   -2.93341
       H    14.87520   11.68763    7.25561
       O    14.13865   11.13806    7.41432
      H1    14.17284   10.54196    6.67148
       H    10.76712   13.18726   -0.01616
       O    10.09002   13.31095   -0.74910
      H1     9.48788   14.00326   -0.43291
       H    14.48592    9.21583    4.58752
       O    14.81937    9.94270    5.07324
      H1    14.89621   10.69647    4.49959
       H    15.01935   11.80811   -5.47720
       O    14.94328   12.53918   -6.10187
      H1    14.59970   12.16499   -6.94745
       H    18.35909    6.92286   -6.69011
       O    17.68071    6.88823   -5.98834
      H1    18.09262    7.15144   -5.16904
       H    12.76467    9.56547   -5.11610
       O    13.37707    9.35052   -5.80995
      H1    13.67756    8.47716   -5.64208
       H    17.69553    3.38004    2.40720
       O    17.80795    4.32984    2.53038
      H1    17.71514    4.41716    3.49884
       H    19.71072    7.07292   -3.61380
       O    18.75658    7.05580   -3.55822
      H1    18.43746    7.91426   -3.22130
       H     9.90965    6.98448    1.01516
       O    10.53484    6.60038    1.64023
      H1    11.48107    6.87295    1.50374
       H    12.62193   13.03294   -1.76848
       O    13.10520   12.30741   -2.07432
      H1    13.28848   11.73403   -1.27824
       H    15.53082    6.52358   -0.22880
       O    14.69781    6.80442   -0.51849
      H1    14.28578    6.05946   -0.97802
       H    14.11132    9.18533   -2.57924
       O    14.75867    8.49100   -2.61391
      H1    14.64000    8.06665   -1.73478
       H    14.89962    6.35959   -4.68035
       O    13.98531    6.74469   -4.58667
      H1    14.12943    7.45700   -3.94972
       H    15.61304   14.71455    5.10026
       O    15.31147   13.79551    5.38477
      H1    15.85848   13.53133    6.13000
       H    19.37144   10.72443   -1.86379
       O    19.72512   11.30866   -1.21633
      H1    19.14923   11.51231   -0.44318
       H    18.83665    6.93510    0.65053
       O    19.80705    7.03694    0.80357
      H1    20.22053    6.15516    1.02387
       H    11.84046   15.61399    2.21821
       O    11.23185   15.28899    1.56608
      H1    11.39584   14.34826    1.65515
       H    13.25869    9.68656    3.11552
       O    12.64103   10.07064    2.45388
      H1    11.74419   10.03426    2.80649
       H    12.87160   13.16429    1.25246
       O    12.02197   12.67714    1.04918
      H1    12.17211   11.82199    1.51315
       H    14.13880    4.51284   -2.31107
       O    13.46523    4.85107   -1.75828
      H1    13.34473    4.36181   -0.91307
       H    17.45132    5.46046    1.11548
       O    17.46115    6.06498    0.38014
      H1    18.16230    5.81671   -0.19652
       H    13.15309   12.94414   -5.04977
       O    12.44508   13.58728   -5.06173
      H1    12.09442   13.69884   -4.13472

