156
frame 5 | Written by MDAnalysis XYZWriter (release 2.4.3)
       H    -3.62217    2.82625   -2.27314
       O    -3.74615    2.19053   -3.01351
      H1    -4.68560    2.02280   -3.03168
       H    -7.92714    5.09828   -6.33142
       O    -7.43200    4.28013   -6.10934
      H1    -8.01078    3.68879   -5.51841
       H    -4.89546   -2.59345   -7.66553
       O    -4.22403   -1.85191   -7.70741
      H1    -4.38873   -1.42848   -8.57811
       H    -0.88950    3.94439    0.86035
       O    -1.29320    3.55272    0.04245
      H1    -1.77621    2.76615    0.31439
       H    -7.41444    2.04427   -3.64685
       O    -6.63643    2.20188   -3.08175
      H1    -6.74984    1.49156   -2.38591
       H    -0.45830   -1.94001   -5.18200
       O    -1.21124   -1.85578   -4.54444
      H1    -0.75225   -1.59432   -3.75467
       H    -4.24312   -0.51539   -6.35484
       O    -4.41495    0.15820   -5.68349
      H1    -3.48663    0.48573   -5.48846
       H    -9.70121   -1.41090    2.70779
       O    -8.83040   -1.76455    2.86954
      H1    -8.27095   -1.03857    3.15184
       H    -4.25207   -2.20022   -3.63788
       O    -3.45883   -2.48627   -3.19999
      H1    -2.73231   -2.19125   -3.72928
       H    -8.17403    1.32722   -5.75319
       O    -8.56227    1.71497   -4.92917
      H1    -9.51439    1.82102   -5.05712
       H   -13.26887   -3.72233   -1.70683
       O   -12.40321   -4.01945   -1.53008
      H1   -11.92613   -3.31362   -1.01359
       H    -6.47962    4.75683    1.29692
       O    -6.85298    4.36926    0.51014
      H1    -7.42711    3.64785    0.83529
       H    -8.17671   -6.52791   -4.40393
       O    -8.24764   -6.08314   -3.56796
      H1    -9.24252   -5.92789   -3.45418
       H    -4.43871    5.90380   -3.40418
       O    -4.28630    6.07730   -2.47204
      H1    -4.45734    5.24400   -2.01672
       H    -7.83878   -4.55016   -4.56804
       O    -7.76001   -3.91642   -5.32122
      H1    -7.06435   -4.16222   -5.92333
       H   -11.36727    1.50388    2.41088
       O   -11.57579    1.94237    1.53606
      H1   -11.06571    1.36179    0.94245
       H    -6.97762    1.44838   -7.20575
       O    -6.96254    0.50950   -6.87131
      H1    -6.17224    0.45375   -6.32906
       H    -7.10347    3.29055   -9.06341
       O    -6.92353    2.84618   -8.21208
      H1    -7.19109    3.39149   -7.49518
       H    -8.07699   -6.32316   -0.06165
       O    -8.19412   -5.37185    0.21260
      H1    -7.36741   -5.14593    0.62111
       H    -4.58088    2.67843    0.88569
       O    -4.74959    2.24967    1.67157
      H1    -5.05113    1.39537    1.48131
       H    -1.28715   -3.14921   -7.40594
       O    -2.02793   -3.40316   -7.93276
      H1    -2.79694   -2.77556   -7.75392
       H    -1.35945   -0.13044   -5.08743
       O    -1.50195    0.77491   -5.41824
      H1    -1.27805    1.29806   -4.65476
       H    -0.84338   -1.09697   -1.51352
       O    -0.23305   -0.81579   -2.21268
      H1    -0.40676    0.08479   -2.37769
       H    -7.05349    3.07304    3.55743
       O    -7.23627    2.53948    2.75203
      H1    -6.36082    2.44963    2.27318
       H    -5.26496   -0.23091    0.01258
       O    -5.63475   -0.37090    0.94963
      H1    -6.37312   -0.94531    0.86548
       H    -6.23932   -0.89157   -2.91895
       O    -6.57279   -0.42533   -2.16584
      H1    -6.89422   -1.15413   -1.61645
       H   -11.13807    0.39392   -1.64247
       O   -11.79894    0.37427   -2.35475
      H1   -11.71230    1.18520   -2.86564
       H   -11.40791   -5.14051   -4.47021
       O   -11.08535   -5.54933   -3.61250
      H1   -11.39255   -4.94811   -2.93224
       H    -5.34754   -6.79564   -4.86530
       O    -5.68108   -7.34167   -5.55982
      H1    -6.16457   -8.04274   -5.14961
       H    -3.28750   -6.43966   -4.82529
       O    -3.77514   -5.87352   -4.18821
      H1    -3.45206   -4.97589   -4.36988
       H    -1.18059    2.08541   -1.99471
       O    -0.63113    1.86317   -2.76242
      H1     0.16003    2.35482   -2.51364
       H   -10.00733   -0.66441   -6.33488
       O   -10.53254   -0.64241   -7.10184
      H1   -11.43491   -0.89866   -6.88727
       H   -11.42957   -3.04455    1.03104
       O   -11.71989   -2.27902    0.51220
      H1   -12.50778   -1.83298    0.89597
       H    -5.71522   -1.44325   -5.01349
       O    -5.93455   -2.21665   -4.42854
      H1    -6.62638   -2.73443   -4.80779
       H    -8.04228   -2.49505   -0.09563
       O    -8.23665   -1.70842    0.35060
      H1    -8.58078   -2.04142    1.19011
       H    -7.62697    4.58884   -1.26321
       O    -8.09439    4.27876   -2.04153
      H1    -7.50989    3.65370   -2.47375
       H    -9.13541   -3.79661   -6.33067
       O    -9.80468   -4.11032   -6.96590
      H1    -9.38369   -3.89094   -7.84174
       H    -3.48931   -4.64930   -1.45801
       O    -4.36764   -4.93869   -1.28262
      H1    -4.66252   -4.78441   -2.14881
       H   -12.49630   -1.05898   -3.10019
       O   -12.93096   -1.77138   -3.59409
      H1   -12.71507   -2.53211   -3.13195
       H    -6.28350    0.08811   -8.51459
       O    -5.69280    0.01889   -9.29514
      H1    -6.15140   -0.52700   -9.98242
       H    -2.03948   -1.72786    1.34873
       O    -1.47084   -2.03265    0.60487
      H1    -1.64276   -2.98911    0.53641
       H    -2.65004    0.66062    0.07366
       O    -2.33879    1.18281    0.86860
      H1    -3.12614    1.33016    1.39914
       H    -5.42326    4.03065   -0.52166
       O    -4.46469    3.90421   -0.71190
      H1    -4.05408    4.54466   -0.10890
       H    -7.42479   -3.69205   -2.68146
       O    -7.59615   -3.52599   -1.77976
      H1    -7.82634   -4.38631   -1.42836
       H    -3.96059   -1.79006    3.56002
       O    -3.90692   -2.10247    2.56768
      H1    -4.50106   -1.60013    2.02311
       H    -2.66352    2.95955   -4.22656
       O    -2.24232    3.67280   -4.74370
      H1    -1.76185    4.23732   -4.14157
       H    -3.53987   -1.25799   -1.35466
       O    -3.51172   -0.28829   -1.07539
      H1    -3.42477    0.21665   -1.89519
       H    -9.66567    3.72943    0.56402
       O    -9.14155    3.05813    0.03513
      H1    -8.72084    3.51874   -0.75870
       H    -1.85000    0.93257   -7.44700
       O    -1.94139    1.19414   -8.39076
      H1    -2.84745    1.53781   -8.43364
       H    -9.39045   -0.35357   -0.03748
       O    -9.97770    0.38546   -0.12900
      H1    -9.40063    1.16175   -0.06179
       H    -5.06260   -4.39586   -7.20016
       O    -5.91682   -3.91885   -7.46688
      H1    -5.90484   -3.93416   -8.43429
       H    -5.41017   -5.06991    1.87029
       O    -5.87045   -4.44733    1.25181
      H1    -5.46987   -4.51680    0.36533

