156
frame 9 | Written by MDAnalysis XYZWriter (release 2.4.3)
       H    17.61922   -1.96414   12.84133
       O    16.87890   -1.79911   13.44229
      H1    17.21949   -1.29521   14.16324
       H     8.21353   -3.28183   17.55514
       O     8.78622   -3.55997   16.84189
      H1     9.58312   -2.99965   17.00143
       H    13.76869   -6.34044   19.35915
       O    13.83915   -7.12914   19.88557
      H1    14.76816   -7.39042   19.70866
       H    16.24038   -1.65381   18.32142
       O    16.47230   -0.76805   17.96775
      H1    15.59399   -0.36934   18.16896
       H    18.49591    0.13334   15.66946
       O    17.66454   -0.38594   15.62438
      H1    17.43228   -0.57079   16.56253
       H    11.87051  -12.21714   14.02525
       O    12.04156  -11.29107   13.83107
      H1    11.82490  -11.12756   12.90637
       H    13.74924  -11.10076   14.54588
       O    14.60689  -10.94870   14.91538
      H1    14.59330  -10.18051   15.50220
       H     8.30328   -8.89911   13.73130
       O     8.88366   -8.27735   13.28709
      H1     9.06607   -8.65177   12.40056
       H    11.84165   -7.24018   14.39725
       O    12.32695   -7.33622   13.52090
      H1    12.21596   -8.22098   13.19949
       H    12.72641   -1.87417   13.21584
       O    12.66903   -0.94079   13.25908
      H1    11.71028   -0.81671   13.07702
       H    10.40250  -11.33352   15.43498
       O    10.02770  -11.14733   16.31002
      H1     9.89522  -11.98556   16.81937
       H    10.64924   -9.97150   17.35944
       O    11.29508   -9.43935   17.88268
      H1    11.35543   -9.90209   18.70081
       H    15.92156    0.25296   14.20463
       O    15.02670    0.34900   14.52849
      H1    14.53535   -0.10303   13.82343
       H     9.55965  -12.16366   18.89168
       O     9.65187  -12.97302   18.34591
      H1    10.61249  -13.28255   18.44742
       H    14.95173   -7.45618   15.22598
       O    15.08880   -6.89166   14.45588
      H1    14.20865   -6.96770   14.03444
       H    12.90210   -4.13141   19.23161
       O    13.73147   -4.56888   18.97978
      H1    14.51026   -4.11722   19.21307
       H    16.98196   -7.52579   18.86787
       O    16.39250   -7.92524   19.54396
      H1    16.27336   -8.87389   19.37145
       H    19.06304   -5.30579   18.36234
       O    19.41795   -4.37707   18.40336
      H1    19.73025   -4.43826   19.34606
       H    15.25987  -12.85873   15.83251
       O    16.18514  -13.13728   16.01263
      H1    16.70816  -12.36655   15.85057
       H    18.84404  -10.72595   15.81248
       O    17.93032  -10.93447   15.51702
      H1    17.60102  -10.11226   15.06957
       H    13.10336  -12.30718   18.96848
       O    13.48754  -11.71680   19.65391
      H1    12.69535  -11.27583   19.96393
       H     5.55324  -11.10928   18.22729
       O     6.03909  -10.87687   17.40061
      H1     6.61315  -10.17418   17.67625
       H    16.82460   -3.89788   18.87949
       O    16.13585   -3.35785   19.21299
      H1    16.23312   -3.24697   20.18354
       H    11.24639   -7.13183   16.34141
       O    10.92717   -6.59370   15.61047
      H1    11.20214   -5.70911   15.87965
       H    14.60897  -10.76661   18.91388
       O    15.37818  -10.18972   18.56160
      H1    16.26744  -10.61974   18.76481
       H    14.47260   -9.15431   17.27959
       O    13.92211   -8.92685   16.48041
      H1    12.98384   -9.11566   16.72326
       H    12.71427  -14.68121   18.23608
       O    12.23892  -13.84059   18.13983
      H1    12.10597  -13.77369   17.15982
       H    18.74597   -4.37804   14.76339
       O    18.02900   -4.32424   14.05301
      H1    17.68892   -3.40645   14.01786
       H     6.91073   -4.32449   19.53440
       O     6.53628   -4.20559   18.66879
      H1     5.61869   -3.94068   18.83674
       H    14.90059   -5.86602   12.60261
       O    15.01260   -5.63926   11.67813
      H1    14.72263   -4.72646   11.58316
       H    18.66366    0.81105   20.20457
       O    18.69353    0.22178   19.44401
      H1    18.01437    0.58718   18.86428
       H    10.53963   -0.94698   16.67622
       O    11.31974   -1.47272   16.46739
      H1    11.19283   -1.43568   15.46223
       H     7.64823   -4.72887   14.66719
       O     7.51640   -3.76093   14.60653
      H1     7.96412   -3.43198   15.37965
       H    14.68503  -10.14073   13.29710
       O    14.62286  -10.01367   12.28970
      H1    15.41791   -9.53298   12.02046
       H    13.35456    1.30468   18.57322
       O    12.94109    1.49177   19.41703
      H1    13.02495    0.63410   19.77983
       H     8.78334   -5.25892   19.52973
       O     8.77490   -5.97014   18.83476
      H1     8.81123   -5.48268   18.02202
       H    12.05801   -3.41462   16.86516
       O    12.60262   -4.10540   16.59666
      H1    13.16241   -4.20647   17.40354
       H    18.19445   -7.92240   13.97978
       O    17.43732   -8.36609   14.38027
      H1    16.65314   -7.85724   14.14498
       H     7.08278   -8.32589   18.05950
       O     7.74560   -8.96958   18.20263
      H1     8.60464   -8.52208   18.14107
       H    15.77042   -5.68216   15.61693
       O    16.27717   -5.05387   16.19450
      H1    17.01604   -4.89015   15.62725
       H     8.32026  -10.53859   15.48141
       O     7.74165  -10.39005   14.70962
      H1     6.81012  -10.42085   15.02495
       H     9.25620    0.50434   17.90024
       O     8.92901   -0.42579   17.72083
      H1     8.16765   -0.30457   17.19242
       H     6.79434   -6.48576   14.68234
       O     7.65155   -6.35193   15.12775
      H1     8.37001   -6.81214   14.61931
       H    18.95942   -5.67801   13.54777
       O    19.28069   -6.54328   13.24737
      H1    20.20549   -6.60972   13.55895
       H    13.04781   -0.44684   17.05702
       O    13.87921    0.00090   17.13833
      H1    14.28524   -0.26581   16.26973
       H    18.29271  -10.79735   20.17609
       O    18.09038  -10.82002   19.22227
      H1    18.48669  -10.00432   18.89688
       H    14.32120   -3.48819   15.23899
       O    14.51496   -3.30049   14.30272
      H1    15.40559   -2.89914   14.18489
       H    12.16421   -4.10917   12.12469
       O    12.90719   -3.49647   11.93520
      H1    13.49421   -3.53925   12.62829
       H     6.58982   -6.58006   16.74662
       O     6.16142   -6.88252   17.56065
      H1     6.29545   -6.21741   18.21652
       H    18.76886   -7.28741   17.34142
       O    18.14780   -6.66750   17.73994
      H1    17.51350   -6.41305   17.05801
       H     9.88340   -5.19992   12.12925
       O    10.82670   -5.28510   12.19701
      H1    10.95914   -6.01672   12.78185
       H     9.29793   -3.19710   14.04175
       O     9.97436   -2.48304   14.06819
      H1     9.96709   -2.09279   13.17936

