156
frame 5 | Written by MDAnalysis XYZWriter (release 2.4.3)
       H    -6.46791    4.37914   11.03887
       O    -5.97868    4.85739   11.78088
      H1    -5.48213    4.16175   12.18589
       H    -7.97774    0.84354   11.77426
       O    -8.01257   -0.16937   11.78654
      H1    -7.14741   -0.41925   12.15129
       H    -3.97400   -3.64226   12.73109
       O    -3.95016   -2.74348   12.35056
      H1    -3.04769   -2.43882   12.45590
       H    -7.59914   -5.91086    6.98598
       O    -7.69558   -4.98105    7.17591
      H1    -7.08501   -4.44196    6.71678
       H    -9.70121   -1.41090    2.70779
       O    -8.83040   -1.76455    2.86954
      H1    -8.27095   -1.03857    3.15184
       H    -9.02635    3.59866    6.51941
       O    -8.31353    3.51947    5.80253
      H1    -7.85921    2.75792    6.12314
       H   -10.16202    4.27388    7.58548
       O   -10.01822    3.57334    8.25853
      H1    -9.10946    3.66075    8.58116
       H    -1.87595    4.54799    9.15712
       O    -2.66650    4.02092    9.00649
      H1    -3.41484    4.60947    8.80822
       H   -10.34070   -4.64195    9.07278
       O    -9.64661   -5.28856    9.14260
      H1    -8.96787   -5.16405    8.44174
       H    -3.72671    1.31779    5.04754
       O    -4.62340    1.54714    4.75706
      H1    -5.21620    0.81109    4.76787
       H    -7.61105   -4.14737   12.55608
       O    -7.50279   -4.32844   13.50019
      H1    -6.58530   -4.57177   13.69458
       H    -0.46733   -0.94208   13.29661
       O    -1.28874   -0.98203   12.72022
      H1    -1.64541   -0.11972   12.83089
       H    -8.65266    3.80168   11.24565
       O    -8.90310    3.05286   11.84264
      H1    -9.63420    2.69099   11.32154
       H     0.11488   -3.24094    8.10875
       O    -0.59277   -2.57364    8.18691
      H1    -0.45297   -2.03586    7.43336
       H    -8.02651    1.25195   14.27009
       O    -7.41368    2.06679   14.17656
      H1    -7.98498    2.77290   13.79326
       H    -3.86408    6.60727    9.95184
       O    -4.05743    6.79591    9.06000
      H1    -4.18325    7.78315    8.99311
       H    -8.88195   -4.53691   10.43526
       O    -8.36912   -3.91808   10.97336
      H1    -7.71478   -3.44234   10.42304
       H    -8.92444    5.91719   12.55116
       O    -9.34429    6.49323   11.92204
      H1    -9.94146    5.80737   11.55545
       H    -6.98508   -1.38168    6.17614
       O    -6.68872   -2.29908    6.11231
      H1    -7.18217   -2.57862    5.33203
       H    -7.05349    3.07304    3.55743
       O    -7.23627    2.53948    2.75203
      H1    -6.36082    2.44963    2.27318
       H    -7.59578    5.29117    9.40612
       O    -7.50867    4.33468    9.45921
      H1    -6.87075    4.05344    8.83654
       H   -11.00874    1.83862    7.76709
       O   -11.22439    1.08554    7.17706
      H1   -12.02190    0.74146    7.56415
       H    -0.35061   -1.35695   11.02310
       O     0.35656   -1.01285   10.47096
      H1     0.12648   -1.21927    9.57562
       H    -4.86860    5.84199    7.46968
       O    -5.45763    5.15380    7.19004
      H1    -5.00907    4.76759    6.44018
       H     0.73711   -0.40887    5.93346
       O    -0.11509   -0.76749    5.59436
      H1    -0.73780   -0.03248    5.71841
       H   -11.01426    3.95782    9.73833
       O   -11.25742    4.46869   10.54249
      H1   -11.97237    3.97834   10.92004
       H    -5.08481   -1.69688   13.07042
       O    -6.03322   -1.46646   13.23693
      H1    -6.48234   -2.32133   13.21482
       H    -6.26185   -2.08780    9.44678
       O    -6.14799   -2.75448   10.13107
      H1    -5.38145   -2.45400   10.62800
       H    -7.57558    0.54506    4.89126
       O    -7.58272    0.31338    3.93943
      H1    -7.50137    1.15719    3.49986
       H    -6.58661    0.78462    7.44341
       O    -6.67216    1.06998    6.51675
      H1    -5.74822    1.25507    6.23556
       H    -2.13173   -3.67133    8.07223
       O    -2.50659   -4.56840    7.97797
      H1    -3.41835   -4.56601    8.33465
       H    -4.77004   -2.12783    5.52744
       O    -3.92113   -1.75827    5.31900
      H1    -3.27585   -2.47853    5.50715
       H    -7.46001    6.08066   14.15922
       O    -7.78772    5.27373   13.76262
      H1    -7.15006    5.10395   13.04474
       H    -1.73143    3.37528    7.64410
       O    -1.04094    3.09378    7.08915
      H1    -0.88796    3.94476    6.56718
       H    -7.95725    6.94919   10.61715
       O    -7.50774    7.00909    9.77154
      H1    -6.63971    7.24427   10.00661
       H   -10.04634   -0.33961    7.12021
       O    -9.51991   -1.11005    7.15327
      H1   -10.00253   -1.92427    6.88948
       H     0.87677    0.56649   10.66236
       O     1.26593    1.50702   10.59802
      H1     1.31380    1.72297    9.61079
       H    -8.57016   -0.45954   13.42260
       O    -8.93582   -0.24977   14.28310
      H1    -9.79639    0.14405   14.11870
       H    -6.03096   -1.38577   15.38762
       O    -5.79879   -1.11710   16.28254
      H1    -5.40619   -0.20178   16.31866
       H    -5.52399   -4.14397    9.29779
       O    -5.02898   -4.91085    9.02266
      H1    -5.72895   -5.39759    8.48983
       H    -9.52901   -1.88951   11.17236
       O   -10.42729   -1.74106   10.78961
      H1   -10.48290   -0.83102   10.46286
       H   -11.68366    1.81544   10.46934
       O   -10.83389    1.34252   10.70877
      H1   -10.86024    1.04680   11.61435
       H    -1.49502    1.95683    5.96330
       O    -1.74068    1.24577    5.36612
      H1    -1.25049    1.36599    4.52059
       H    -4.92757    4.73398    4.33314
       O    -4.11854    4.32785    4.70221
      H1    -4.29136    3.36409    4.57673
       H    -2.36360    2.22232   13.60635
       O    -2.80210    1.38401   13.80555
      H1    -2.86942    1.40290   14.72164
       H    -3.96059   -1.79006    3.56002
       O    -3.90692   -2.10247    2.56768
      H1    -4.50106   -1.60013    2.02311
       H    -8.20103   -0.78128    8.56546
       O    -7.44737   -0.51058    9.08738
      H1    -7.73977   -0.38216   10.03777
       H    -6.92576    2.39630   17.59266
       O    -6.30379    2.73130   16.91717
      H1    -6.75878    2.48795   16.06229
       H    -4.39658    1.98806   13.05040
       O    -5.09294    2.26103   12.52817
      H1    -5.89633    2.04457   13.08540
       H    -5.73077    0.71321    9.46325
       O    -4.94716    1.27304    9.39915
      H1    -4.62346    1.34478   10.29774
       H   -11.43447    1.32533   14.34503
       O   -11.31839    0.92162   13.43543
      H1   -12.16421    0.49846   13.38411
       H   -11.25579   -2.70554    9.46844
       O   -11.77812   -3.34700    8.97288
      H1   -11.49732   -3.37830    8.04260

