156
frame 0 | Written by MDAnalysis XYZWriter (release 2.4.3)
       H    -4.02219    4.28283   10.46519
       O    -3.48613    4.40580   11.25622
      H1    -3.87125    3.96582   11.98936
       H    -7.40015   -0.58482   14.32594
       O    -6.64444   -0.08263   14.09764
      H1    -5.91589   -0.68069   13.99945
       H    -9.98113    5.34535   12.97821
       O   -10.62471    5.48232   13.64095
      H1   -10.50028    6.44194   13.79760
       H    -1.65765   -0.78452   12.64407
       O    -2.39047   -0.77058   11.99468
      H1    -2.94201   -0.01047   12.15683
       H   -10.34392   -2.70631   16.28251
       O   -10.18038   -2.03814   16.86673
      H1    -9.24361   -1.78250   16.74732
       H    -1.21617    4.74224   15.00610
       O    -2.00581    4.58171   15.48630
      H1    -1.75986    4.04708   16.28167
       H    -7.76078    3.34308    6.31266
       O    -7.21021    3.93314    5.73109
      H1    -7.72591    4.04247    4.90719
       H    -4.85264    3.75819   18.75027
       O    -4.01029    3.80147   18.24535
      H1    -4.14610    4.57958   17.71840
       H    -0.72668    4.89694   11.11328
       O    -0.86561    4.00153   10.80737
      H1    -1.81888    3.82536   10.90535
       H    -6.86508   -3.83986   12.98287
       O    -5.99887   -4.30424   13.02502
      H1    -5.97812   -4.92519   12.23978
       H     0.26249   -0.73342   13.96960
       O     0.40834    0.21791   13.85257
      H1     0.34435    0.43426   14.81782
       H    -7.82076    1.38675   13.84899
       O    -8.49667    2.10219   14.02337
      H1    -8.53711    2.55393   13.14180
       H    -7.80197    3.10389   15.57300
       O    -7.30477    3.73973   16.03675
      H1    -6.96719    4.34130   15.44738
       H    -9.61844    7.79999    9.97889
       O    -8.91375    7.13067   10.00145
      H1    -8.07915    7.64528   10.18151
       H    -8.91436   -3.84531   12.36369
       O    -8.24909   -3.18609   12.61075
      H1    -7.99614   -2.79305   11.77991
       H    -7.90548    4.94484   10.79613
       O    -8.19783    4.38365   11.49136
      H1    -7.82150    4.81132   12.29951
       H    -0.84714   -2.95568   13.07179
       O    -0.94879   -2.18532   13.70847
      H1    -1.77066   -2.38137   14.14303
       H    -4.74347    0.83057    7.36142
       O    -4.84214    0.04947    6.84876
      H1    -5.67888    0.09430    6.34942
       H    -3.35955    7.91354   11.90389
       O    -4.11336    7.48261   11.49467
      H1    -4.13070    6.55997   11.68128
       H    -8.55910    2.27637    8.52329
       O    -7.77595    2.17293    7.90631
      H1    -7.01230    2.48204    8.40543
       H    -8.15279    5.07104    7.13192
       O    -8.19505    6.03173    7.33355
      H1    -8.75900    6.08323    8.13670
       H   -10.77244   -1.29577    8.99137
       O   -11.28425   -0.42605    8.82455
      H1   -10.92905   -0.15310    7.98230
       H    -0.78920   -1.09524   10.76987
       O     0.07039   -0.92441   10.28215
      H1     0.28017   -1.69937    9.73875
       H    -7.61486   -1.69103   18.27825
       O    -7.58257   -1.33325   17.39296
      H1    -6.61996   -1.27670   17.24564
       H    -3.71703   -1.36382   13.08549
       O    -4.34582   -1.81214   13.70212
      H1    -4.51794   -2.67401   13.27211
       H    -7.60088   -1.54748   10.08140
       O    -7.52397   -2.53137   10.24718
      H1    -6.62838   -2.80552   10.46036
       H    -6.10350    2.31312   16.47186
       O    -5.21344    1.93578   16.64249
      H1    -4.67043    2.54297   17.22374
       H    -3.30657    5.87193   16.05350
       O    -4.08826    6.31265   16.41070
      H1    -3.71088    6.99752   16.91675
       H    -6.13072    8.27022    9.31593
       O    -6.26688    8.48150   10.22110
      H1    -5.50574    8.07074   10.62162
       H    -2.69805    3.22587    7.29486
       O    -3.51133    2.68411    7.18687
      H1    -4.00624    2.95218    6.39988
       H    -3.23481   -2.47862   11.10711
       O    -3.79829   -3.19444   10.84999
      H1    -4.06932   -3.07632    9.92307
       H    -6.53511    6.29528   14.12172
       O    -6.59066    5.44979   13.71902
      H1    -5.70422    5.02932   13.81094
       H    -0.88043    3.51047    9.09709
       O    -0.94226    3.37467    8.11707
      H1    -0.22786    3.79477    7.70665
       H    -9.45975    3.10088   10.17138
       O    -9.96840    2.78042    9.39632
      H1   -10.53955    3.47077    9.09737
       H    -9.75634   -0.95996   15.25698
       O    -9.44559   -0.47638   14.42237
      H1    -9.61472    0.45159   14.42391
       H    -6.87626    2.08945   19.48131
       O    -7.83184    2.32739   19.50822
      H1    -8.15652    2.06890   18.62668
       H    -7.83002    0.86725    6.65078
       O    -7.55322    0.26888    5.95502
      H1    -8.01038   -0.57891    6.20307
       H    -9.50146    0.98943   16.77217
       O    -8.56147    1.06688   17.01134
      H1    -8.26241    0.18063   17.29244
       H    -4.71619   -1.32053   15.53519
       O    -4.84059   -0.78060   16.29403
      H1    -5.09707    0.08928   16.01106
       H    -4.76921   -1.67051    7.71827
       O    -4.65658   -2.46400    8.25798
      H1    -4.41969   -3.21854    7.71627
       H    -9.83901   -2.26098   12.08427
       O   -10.59374   -1.82896   11.76883
      H1   -10.30457   -0.93317   11.73928
       H   -10.70158    1.07129   10.49364
       O   -10.48021    1.04602   11.47047
      H1   -11.12467    1.66078   11.88253
       H    -2.71193   -0.91930   18.43801
       O    -2.44409   -0.91048   17.46230
      H1    -3.28436   -0.74449   16.99612
       H    -8.76112    4.68059   16.44780
       O    -9.59947    5.20127   16.38916
      H1    -9.96762    4.96799   15.50055
       H    -3.39434    3.80233   14.68221
       O    -4.29324    3.51459   14.33168
      H1    -4.59856    2.83876   14.99745
       H    -8.88113    0.22306   10.80324
       O    -8.07841    0.20933   10.21408
      H1    -8.30500    0.43048    9.29299
       H    -6.99598    4.14843   19.49384
       O    -6.45399    4.68251   18.95055
      H1    -6.76643    4.32548   18.07812
       H    -5.94384    1.55070   12.25685
       O    -6.25970    1.84040   11.37458
      H1    -6.75159    1.11863   11.15211
       H     0.07054    3.85753   12.33453
       O     0.59970    3.68997   13.11325
      H1     1.19798    3.00620   12.81893
       H    -4.64464    2.83184    8.43997
       O    -5.49024    3.08397    8.96823
      H1    -5.44367    2.51007    9.75728
       H   -11.48048    1.72337   17.18681
       O   -11.15655    1.22315   16.41243
      H1   -11.77269    0.50252   16.37337
       H   -10.44948   -3.18900    9.93279
       O    -9.97737   -3.46427    9.16521
      H1    -9.10310   -3.15325    9.30985

