156
frame 7 | Written by MDAnalysis XYZWriter (release 2.4.3)
       H   -14.20212  -11.96106    9.83944
       O   -14.69277  -12.40013    9.16650
      H1   -15.03437  -11.75011    8.60468
       H   -16.56867  -18.52196   16.55897
       O   -16.44272  -18.07655   15.73116
      H1   -16.26333  -18.82821   15.08671
       H   -10.76795  -13.05955   13.17769
       O   -11.00359  -13.85101   12.66096
      H1   -11.95049  -13.95347   12.67156
       H   -17.86982   -9.88994   11.92715
       O   -18.11699  -10.75542   12.28656
      H1   -19.07766  -10.95603   12.34896
       H   -11.26876  -10.06051   17.01102
       O   -12.04792  -10.29937   17.52186
      H1   -12.45356   -9.41092   17.68354
       H   -14.24693  -10.03257   15.21200
       O   -13.95100  -10.83502   15.63540
      H1   -13.25366  -10.55837   16.32874
       H   -13.46385   -8.34297    8.45454
       O   -14.19296   -8.81840    8.85738
      H1   -14.83683   -8.14621    9.05143
       H   -16.25674  -13.99211   18.89734
       O   -16.80349  -13.32017   18.42555
      H1   -16.45073  -13.12109   17.56283
       H   -12.05590  -14.84062   19.86371
       O   -11.68450  -14.84619   18.99336
      H1   -10.93533  -14.27536   19.14771
       H   -17.68756  -18.11557    8.99911
       O   -17.19257  -18.95632    8.81755
      H1   -17.58770  -19.64212    9.34707
       H   -10.03154   -8.52186   15.77612
       O    -9.56408   -9.30367   15.68010
      H1    -9.57811   -9.49139   14.77347
       H   -15.19838  -18.63489   11.80269
       O   -15.61304  -17.92772   12.34124
      H1   -14.91493  -17.46217   12.84294
       H   -17.37974   -7.42842   11.01038
       O   -18.02248   -8.02982   11.47408
      H1   -18.82566   -8.05714   10.90634
       H    -7.89012  -13.27423   16.14888
       O    -7.00337  -13.71740   16.30673
      H1    -6.37237  -13.83663   15.55158
       H   -14.85571  -12.11835   15.83794
       O   -15.29774  -13.00524   15.93213
      H1   -14.62642  -13.66136   16.02327
       H    -9.56930  -10.03125    9.69507
       O    -8.88867   -9.75251    9.06267
      H1    -8.32312  -10.46937    8.79412
       H    -8.73795  -12.50606   12.07228
       O    -8.25315  -12.42751   12.92601
      H1    -7.43935  -11.85023   12.79320
       H   -11.46502  -10.37778   10.94770
       O   -10.54635  -10.60921   10.92113
      H1   -10.57210  -11.39544   10.32080
       H   -17.66610  -10.48965   14.17768
       O   -17.59036  -10.19568   15.09341
      H1   -16.75266   -9.75082   14.99960
       H   -18.08014  -10.23848    9.17990
       O   -17.76577   -9.44804    8.75712
      H1   -17.28871   -9.04732    9.52255
       H   -19.15995  -14.27294   12.35310
       O   -18.54528  -14.33283   13.13860
      H1   -18.94809  -13.79696   13.81776
       H   -11.20612  -14.56424    7.58514
       O   -10.52263  -15.02339    8.05624
      H1   -11.02421  -15.64824    8.59383
       H   -11.74957  -10.98821   13.53486
       O   -10.78813  -11.23173   13.60610
      H1   -10.41221  -11.29408   12.69580
       H   -11.39484  -15.97323   16.05469
       O   -12.21131  -16.01518   16.54187
      H1   -12.07989  -15.46665   17.31208
       H   -15.92651  -13.81234    9.18812
       O   -16.88925  -14.09865    9.14400
      H1   -17.00606  -14.70750    9.85711
       H   -14.94161  -12.30195   12.69588
       O   -15.27981  -11.38584   12.72539
      H1   -16.22126  -11.54998   12.62211
       H   -12.24152  -16.77712   12.34239
       O   -12.63982  -16.81442   13.21657
      H1   -12.04150  -16.23456   13.76766
       H    -7.92545  -15.66677   16.51598
       O    -8.50075  -16.36720   16.35130
      H1    -8.02264  -17.09695   15.88189
       H   -14.85063  -14.40967   12.29014
       O   -14.28372  -13.84815   12.83966
      H1   -14.47496  -14.13637   13.75603
       H   -12.43923  -11.82221    6.67067
       O   -12.61600  -11.11382    6.06453
      H1   -11.80083  -10.58247    5.99544
       H    -8.55726  -17.84531   10.69153
       O    -9.28188  -18.28934   10.26278
      H1    -8.96955  -18.49654    9.34160
       H   -13.17204  -17.90137    7.69764
       O   -13.58737  -17.47543    8.48485
      H1   -13.97877  -18.20501    9.01405
       H   -13.38867   -7.33455   11.87445
       O   -13.94462   -7.07450   12.60706
      H1   -13.37494   -6.41211   13.11609
       H   -13.94485  -10.50154   11.76374
       O   -13.27334  -10.46614   11.02956
      H1   -13.56881   -9.74955   10.40287
       H    -9.57200  -12.16790   15.24130
       O    -9.51532  -12.40972   16.16196
      H1   -10.32263  -12.95673   16.38513
       H   -10.08607  -14.89903   14.06094
       O   -10.32672  -15.64247   14.66785
      H1    -9.51566  -15.87650   15.22818
       H   -19.65567  -17.31368   10.05239
       O   -18.73342  -17.03055   10.24214
      H1   -18.65567  -17.01415   11.18000
       H   -16.08412   -8.04465   17.86285
       O   -16.45090   -8.63922   17.17884
      H1   -15.84559   -9.39125   17.11275
       H   -10.10421  -13.74251    9.26150
       O    -9.95741  -13.17277    9.98639
      H1   -10.30730  -13.65648   10.76560
       H   -14.33693  -17.97699   16.24440
       O   -13.43530  -18.33204   16.28745
      H1   -12.92452  -17.44295   16.37873
       H   -17.89250  -12.73015    9.62000
       O   -18.41621  -11.92079    9.89434
      H1   -18.16326  -11.73125   10.81430
       H   -15.10086  -16.53482    7.28672
       O   -15.87607  -16.07795    6.89386
      H1   -16.17148  -15.57899    7.70238
       H   -17.80641  -14.71548   18.53865
       O   -18.20245  -15.56460   18.24833
      H1   -19.13154  -15.34189   18.08361
       H   -13.24015  -13.26017    8.05605
       O   -12.70613  -13.42502    7.27531
      H1   -13.34902  -13.68255    6.61971
       H   -19.17666  -16.20947   13.35737
       O   -19.60493  -17.00212   13.04419
      H1   -19.42908  -17.63998   13.72369
       H   -15.36972   -9.95460    7.42469
       O   -15.29539  -10.68225    6.79342
      H1   -14.32291  -10.62886    6.53297
       H   -10.88414  -17.33595   10.11219
       O   -11.62208  -16.74321   10.13593
      H1   -12.27452  -17.17154    9.54082
       H   -18.37900  -13.08760   16.62591
       O   -18.73868  -12.87475   15.75782
      H1   -18.57236  -11.96836   15.60164
       H   -12.30574  -19.72528   14.71433
       O   -12.23423  -19.69276   13.71218
      H1   -12.08935  -18.74259   13.54669
       H   -16.70627  -15.29015   12.30203
       O   -16.32596  -15.54336   11.41001
      H1   -15.96601  -16.44002   11.55712
       H   -16.82479  -14.79794   14.34354
       O   -16.13262  -15.48787   14.38169
      H1   -16.43520  -16.27435   14.90957
       H   -15.14933   -9.64618   13.51877
       O   -15.02565   -8.92558   14.12168
      H1   -14.50798   -8.24942   13.62140

