156
frame 0 | Written by MDAnalysis XYZWriter (release 2.4.3)
       H   -16.69225   12.00384   -1.98552
       O   -15.98213   11.38096   -2.12205
      H1   -15.68091   11.34448   -3.07379
       H   -13.12725    7.40301   -7.32219
       O   -12.58823    8.09376   -6.78187
      H1   -13.18454    8.06307   -6.01802
       H    -7.67204    5.40603   -9.16472
       O    -8.10323    6.24987   -8.88001
      H1    -8.96894    6.01401   -8.52851
       H   -17.66813    9.20392   -5.94227
       O   -17.73197    9.76093   -5.15099
      H1   -17.64575    9.19060   -4.37402
       H   -10.94964    5.69329   -6.77226
       O   -10.81658    5.65645   -7.69587
      H1   -10.72481    4.69988   -7.82960
       H   -11.33229   12.04974  -11.88614
       O   -12.08735   12.41190  -11.46931
      H1   -12.64609   12.40699  -12.25411
       H   -11.82773    4.71052   -4.70107
       O   -11.02806    5.05277   -5.17922
      H1   -10.83154    5.89777   -4.77427
       H   -13.58253    7.14446   -3.80717
       O   -14.11174    7.67094   -4.39775
      H1   -13.99967    8.52818   -4.03448
       H    -4.97334    9.74574   -8.01034
       O    -5.86657    9.95594   -7.67621
      H1    -6.39304    9.49322   -8.34690
       H    -7.62082    7.98752   -9.48468
       O    -7.61509    8.95535   -9.41638
      H1    -8.54676    9.21489   -9.31866
       H   -10.99498    9.60724   -2.69510
       O   -10.20762    9.23983   -2.18714
      H1   -10.60561    8.46917   -1.69553
       H   -12.96676    9.93261   -2.16467
       O   -12.60648    9.85972   -2.99876
      H1   -12.75859   10.73384   -3.43173
       H    -9.83868    3.46220   -5.52050
       O    -9.16819    2.72948   -5.45354
      H1    -9.61054    1.95818   -5.05090
       H    -7.03769   12.83097   -4.60565
       O    -7.91353   13.21563   -4.73193
      H1    -8.24074   12.99467   -5.57706
       H   -13.72085   10.28580  -11.92089
       O   -13.25984    9.56628  -12.37183
      H1   -12.38727    9.52907  -11.98089
       H   -12.56680   12.49716   -5.96190
       O   -12.85297   13.41119   -6.07416
      H1   -12.29591   13.65542   -6.83278
       H   -13.30051   10.93403   -8.68813
       O   -12.54507   10.60579   -9.15453
      H1   -12.59337   11.08193   -9.97098
       H    -9.47281   10.32276  -11.83607
       O   -10.35913   10.13374  -11.52714
      H1   -10.36429   10.21840  -10.58520
       H   -11.38270    7.39279  -12.92535
       O   -11.41922    6.83576  -12.17136
      H1   -10.58967    6.93561  -11.65639
       H   -13.96882    3.67422  -10.86628
       O   -13.12576    3.88260  -10.49008
      H1   -13.08896    4.84639  -10.31049
       H    -8.19154    3.29072   -7.80569
       O    -7.18540    3.43297   -7.72171
      H1    -6.98253    4.14647   -7.14678
       H   -16.11639    5.22729   -3.76219
       O   -16.54589    5.81718   -4.41709
      H1   -15.89098    6.53780   -4.61637
       H   -17.21920    7.08654   -3.22118
       O   -17.58678    7.93521   -2.90784
      H1   -17.04280    8.22114   -2.13563
       H   -14.33179    8.78607  -10.44208
       O   -15.12824    8.28523  -10.32167
      H1   -15.00677    7.48541  -10.87182
       H   -14.23365    5.20698   -7.51087
       O   -14.07046    4.28194   -7.49864
      H1   -14.47774    3.95095   -8.32318
       H   -15.61876   12.42616   -4.84416
       O   -15.41824   11.44780   -4.81667
      H1   -16.29395   11.04679   -4.93870
       H   -11.86588    3.67395  -11.70490
       O   -11.26115    4.03402  -12.36901
      H1   -11.34708    4.99563  -12.17511
       H   -16.82135    2.84123   -5.76200
       O   -16.05517    2.30187   -5.56050
      H1   -15.31465    2.87410   -5.86811
       H   -10.91229    3.67872   -9.48309
       O   -10.38990    3.18037   -8.86197
      H1   -10.93986    2.37982   -8.76608
       H   -12.22194    6.62188  -10.51325
       O   -12.69455    6.37149   -9.66533
      H1   -11.99530    6.20297   -9.02749
       H   -18.06651    7.69342   -7.89161
       O   -17.43573    8.32540   -7.46188
      H1   -17.05327    8.78562   -8.22004
       H   -13.29190    9.35511    0.22067
       O   -13.67718    9.87131   -0.47990
      H1   -14.54434    9.50428   -0.42190
       H   -15.54071    5.81405  -12.68871
       O   -15.99698    6.43122  -12.14209
      H1   -16.84197    6.57342  -12.54395
       H   -14.86069   15.36890   -6.85834
       O   -15.24686   14.48574   -6.84375
      H1   -14.63511   13.92927   -6.39258
       H    -9.00149   11.16220   -7.28120
       O    -9.26964   11.97571   -6.84786
      H1    -9.97991   12.51197   -7.30597
       H   -11.48011   13.46733   -9.05234
       O   -11.05947   13.65906   -8.23167
      H1   -11.15339   14.60906   -7.99632
       H    -8.06625    4.45621   -2.43165
       O    -9.02457    4.74274   -2.56778
      H1    -9.53750    3.87104   -2.67666
       H   -11.06916    9.71841   -8.48636
       O   -10.19946    9.34636   -8.43835
      H1   -10.28903    8.62031   -7.82245
       H   -13.17035    5.58690   -1.61970
       O   -12.36982    5.27136   -2.14338
      H1   -12.21807    4.38240   -1.75188
       H   -12.82996    3.07234   -5.77784
       O   -13.10745    3.24203   -4.85949
      H1   -13.74508    3.92480   -4.94992
       H   -14.38237    9.51296   -7.27282
       O   -14.81737   10.28559   -7.56349
      H1   -14.86248   10.79698   -6.70022
       H    -8.32425    6.01913  -12.47822
       O    -8.60258    6.82724  -11.87357
      H1    -8.33419    6.49760  -11.02243
       H   -18.25333    4.77027   -5.37700
       O   -18.50256    3.89983   -5.67206
      H1   -19.30638    3.88355   -6.18148
       H   -14.40447    2.56636   -2.18568
       O   -14.96584    2.95001   -2.84752
      H1   -14.75267    2.50575   -3.67067
       H   -10.74699   10.94937   -6.21212
       O   -11.58225   10.91034   -5.71244
      H1   -11.70150    9.97556   -6.00017
       H   -11.40292    6.38243   -1.22111
       O   -10.83134    7.08431   -0.83296
      H1   -10.00204    6.60182   -0.44055
       H    -8.78892    6.43417   -3.43134
       O    -8.98278    7.25007   -4.00152
      H1    -9.40912    7.81806   -3.30921
       H   -16.90492    9.49710   -0.02371
       O   -16.38757    9.13464   -0.75301
      H1   -16.20811    9.89364   -1.39371
       H    -7.44275    7.75253   -4.75792
       O    -6.55670    7.48832   -5.09738
      H1    -6.44512    8.21619   -5.69881
       H   -14.74792    7.13436   -8.74676
       O   -14.86295    6.82728   -7.81842
      H1   -15.80490    6.98385   -7.61077
       H   -15.55364   10.21566  -10.95482
       O   -15.32309   11.15778  -10.97536
      H1   -16.03897   11.64377  -11.36955
       H   -16.04850   13.46811   -7.86251
       O   -16.44963   12.77486   -8.43098
      H1   -15.70759   12.07808   -8.50625

