156
frame 3 | Written by MDAnalysis XYZWriter (release 2.4.3)
       H    -5.67756   -8.19898    7.33727
       O    -6.03515   -7.94303    6.46035
      H1    -6.92329   -8.40474    6.47351
       H    -6.00234   -7.57290    3.36323
       O    -6.83300   -7.32277    2.89055
      H1    -6.89486   -7.96790    2.15376
       H    -6.71377   -8.68536    9.62387
       O    -7.62567   -8.48487    9.83512
      H1    -8.08472   -9.28023   10.03426
       H    -8.23887   -4.73764    6.53130
       O    -8.20776   -3.90433    6.00513
      H1    -7.84779   -4.15154    5.11398
       H    -7.59037  -12.12813    5.97649
       O    -7.36052  -11.62575    5.14407
      H1    -8.01879  -11.88578    4.43542
       H    -8.52166   -8.07780    3.59043
       O    -9.14057   -8.30749    4.28301
      H1    -9.65031   -9.08530    4.05547
       H   -10.45064  -10.42443   10.55515
       O    -9.66809  -10.33180    9.96879
      H1   -10.02985  -10.44018    9.07591
       H    -8.40030  -12.31673   10.66814
       O    -7.89599  -12.70903   11.35691
      H1    -7.11670  -12.21042   11.51843
       H   -10.80873   -4.81041    3.26149
       O   -10.76468   -4.29717    4.07041
      H1   -10.19237   -3.58112    3.78157
       H    -5.48095   -6.57584   12.59178
       O    -5.77763   -5.70695   12.25953
      H1    -6.49408   -6.02091   11.72745
       H   -11.81618   -4.68946    9.29518
       O   -11.51437   -5.60856    9.47261
      H1   -10.58147   -5.58112    9.22740
       H    -9.41150  -12.97036    3.14582
       O    -8.68941  -12.32563    3.00367
      H1    -8.29987  -12.75429    2.24671
       H    -3.48595  -11.89773    5.97610
       O    -3.12051  -10.97998    5.93150
      H1    -2.82924  -11.00552    4.98261
       H    -2.29109   -6.66262    9.79133
       O    -2.62079   -7.50992   10.01578
      H1    -2.33091   -8.11047    9.29112
       H    -5.23558   -6.17921    5.69805
       O    -4.76317   -5.34190    5.62642
      H1    -5.24037   -4.86143    4.93128
       H    -9.80864   -3.17024    6.43543
       O   -10.58411   -2.70605    6.79277
      H1   -11.24038   -2.51005    6.13185
       H    -8.98718   -5.75184   -0.07602
       O    -8.79777   -4.94849    0.39621
      H1    -7.86603   -4.94802    0.54288
       H    -3.15636  -10.18232   12.76997
       O    -2.60642  -10.78296   12.22767
      H1    -3.12296  -10.83268   11.47499
       H   -10.82778  -10.99174    4.32097
       O   -10.64665  -10.57290    3.45553
      H1    -9.95328  -11.09004    2.95479
       H    -4.29625   -8.65483   12.76264
       O    -5.11037   -8.48454   12.17906
      H1    -4.87380   -8.41013   11.18775
       H   -11.15201  -14.33045    4.86573
       O   -10.38184  -13.89503    4.70130
      H1    -9.68408  -14.54555    4.86572
       H    -4.94839  -11.50264    1.29116
       O    -4.91443  -10.98462    2.11797
      H1    -5.08568  -11.69135    2.77499
       H   -11.23924  -12.08559    6.53085
       O   -11.07329  -11.19880    6.14158
      H1   -10.11566  -10.94249    6.31185
       H    -7.92986  -10.25341    6.05703
       O    -8.34752   -9.52691    6.61450
      H1    -8.86757   -9.07382    5.89754
       H    -5.19564  -12.28795   12.69169
       O    -5.41803  -11.53872   12.14401
      H1    -5.81659  -10.88185   12.72181
       H    -2.03355   -9.15585    7.38148
       O    -1.22826   -8.76017    7.73674
      H1    -0.68231   -9.49737    8.08711
       H    -4.01463  -14.76613    6.00748
       O    -3.98686  -13.82240    5.87982
      H1    -4.54922  -13.52746    5.13489
       H    -6.19143  -12.52400    4.31411
       O    -5.42887  -12.96836    3.79807
      H1    -5.81376  -13.84037    3.51755
       H    -8.09295   -8.20226   -0.81412
       O    -7.46923   -7.82582   -0.16082
      H1    -6.62766   -7.96353   -0.56822
       H    -8.47099  -16.28526    5.86748
       O    -8.10128  -15.42198    5.67251
      H1    -7.90617  -15.02327    6.55555
       H   -10.77262   -5.70842    5.33042
       O   -10.47897   -6.51793    5.89156
      H1    -9.86700   -6.99288    5.33108
       H    -6.69144   -2.69391    9.64203
       O    -6.68358   -3.45391   10.22512
      H1    -6.04466   -3.19107   10.86358
       H    -8.02886   -7.71974   11.41150
       O    -8.09747   -7.29268   12.30779
      H1    -9.03030   -7.17478   12.47750
       H    -1.80841  -10.74225    3.11566
       O    -2.47769  -11.39147    3.35692
      H1    -3.21900  -11.24940    2.77123
       H   -12.22946   -6.67218    8.32156
       O   -12.66327   -7.12600    7.58655
      H1   -11.86098   -7.32467    7.04130
       H    -4.66058   -7.52757    9.04198
       O    -5.22853   -8.27846    8.93002
      H1    -4.72503   -9.07516    9.11159
       H    -1.10075   -4.44751    9.24765
       O    -1.88048   -4.95400    8.96040
      H1    -2.64330   -4.35713    9.10207
       H    -6.46963   -4.28727    3.12478
       O    -6.46337   -3.92006    4.03440
      H1    -6.18210   -2.99929    3.99789
       H    -0.43007  -10.17928    4.99745
       O    -0.19296   -9.70710    4.16824
      H1    -0.65612   -8.86531    4.37649
       H    -2.49169   -4.64038    5.62234
       O    -1.61462   -4.91130    6.06974
      H1    -1.85371   -4.74109    7.02458
       H    -2.02791   -6.58296    5.23760
       O    -2.08500   -7.17183    4.45801
      H1    -3.02106   -7.39639    4.37212
       H   -11.76452   -7.16267    4.60950
       O   -12.61229   -7.36370    4.23438
      H1   -12.39467   -7.62232    3.28149
       H    -9.31392   -9.39621   12.62400
       O   -10.02162   -9.21770   13.24257
      H1   -10.78896   -9.53718   12.69541
       H   -14.77748  -10.61150    6.58357
       O   -14.17718  -11.36296    6.75527
      H1   -13.27432  -11.08176    6.83662
       H    -5.19950   -3.75705    8.55747
       O    -4.35460   -3.90760    8.08755
      H1    -4.55148   -4.50685    7.31664
       H    -4.77239  -13.70452    9.09129
       O    -4.95350  -13.09602    8.34861
      H1    -4.63872  -13.48168    7.51622
       H    -8.01238  -13.66472    7.92408
       O    -7.50975  -12.91334    7.62758
      H1    -6.55066  -12.98958    7.89218
       H    -4.55036   -9.21573    3.57063
       O    -4.51722   -8.41967    4.11300
      H1    -5.04353   -8.60652    4.87765
       H    -8.31688   -6.42041    8.30821
       O    -9.01457   -5.78594    8.09196
      H1    -9.51585   -6.15745    7.34331
       H    -4.67909  -10.92564   10.51921
       O    -4.19840  -10.77753    9.74329
      H1    -4.42075  -11.58714    9.19204
       H    -1.95748   -4.12024    2.71504
       O    -1.23385   -4.67780    3.05063
      H1    -1.62698   -5.55155    3.42030
       H    -6.42176   -5.93369    1.90251
       O    -6.31898   -5.04671    1.46582
      H1    -5.71075   -5.17708    0.77377

