156
frame 6 | Written by MDAnalysis XYZWriter (release 2.4.3)
       H    -6.33024    5.76375  -18.83643
       O    -6.24382    6.09436  -17.89072
      H1    -5.59930    5.54483  -17.44976
       H     6.91939    0.38270  -19.20947
       O     6.42405    0.83811  -18.50990
      H1     5.74627    1.34624  -18.90970
       H    -1.13329    4.17937  -14.33550
       O    -1.58459    4.87694  -13.90384
      H1    -1.69632    4.46306  -13.02426
       H     3.14904    5.87537  -19.51404
       O     2.25699    5.54800  -19.46439
      H1     1.69875    6.29728  -19.06971
       H    -5.56699    7.94054  -17.97079
       O    -5.89051    8.86151  -18.06277
      H1    -5.18258    9.31130  -17.61900
       H    -1.70637    7.65323  -16.88507
       O    -2.70330    7.68310  -16.94571
      H1    -2.87830    8.58096  -17.13917
       H     0.88051    9.45012  -19.12967
       O     0.31556   10.23451  -19.16833
      H1     0.12618   10.35714  -20.10851
       H     1.54142    2.78697  -15.36475
       O     0.76495    3.24707  -14.94956
      H1     0.39058    2.65868  -14.28190
       H    -1.32881    9.66866  -13.87934
       O    -0.94589   10.12476  -14.69060
      H1    -1.63187   10.57224  -15.14749
       H     0.55361    2.33060  -19.00847
       O     1.26453    2.58931  -19.55151
      H1     1.42520    3.49589  -19.34828
       H     7.25681    8.42099  -16.06581
       O     8.06126    8.83917  -16.34749
      H1     7.99274    8.95659  -17.28847
       H     3.80600    8.77111  -16.85475
       O     4.02290    8.06013  -17.53819
      H1     4.76611    8.47097  -18.02846
       H     5.01138    3.09719  -14.33156
       O     4.90259    2.12513  -14.22116
      H1     5.32246    1.51972  -14.84450
       H    -3.26410    1.51680  -18.39352
       O    -3.80421    1.30723  -19.13633
      H1    -4.10101    2.16352  -19.48110
       H     0.98567    6.15006  -11.21399
       O     1.67054    5.61287  -11.56781
      H1     1.60731    5.60233  -12.52577
       H     0.98394   -0.33577  -15.39588
       O     1.19090   -0.39060  -16.33362
      H1     1.83017    0.32678  -16.44071
       H     2.43865    8.07927  -18.50735
       O     1.51336    8.00386  -18.77455
      H1     1.10938    7.79512  -17.86806
       H     4.62114    5.46098  -12.95010
       O     4.72595    4.57021  -12.52304
      H1     3.85412    4.47326  -12.07733
       H     2.19905    6.36341  -14.07284
       O     1.30649    5.99927  -14.33611
      H1     1.31743    5.01770  -14.61682
       H     9.67271    5.51381  -18.73713
       O     9.23216    5.53978  -17.88106
      H1     9.60838    6.30952  -17.38935
       H     0.38759   11.93492  -18.55032
       O     0.30734   12.90853  -18.32939
      H1    -0.26253   12.87861  -17.53627
       H     0.04761    1.00969  -12.69110
       O    -0.35707    1.88112  -12.68370
      H1    -1.31509    1.91057  -12.40155
       H     7.64628    2.57972  -18.48166
       O     8.01791    3.24132  -19.05682
      H1     8.29740    3.96596  -18.49392
       H    -0.44776    8.60122  -15.74752
       O     0.17833    8.04379  -16.26269
      H1     0.36950    7.26089  -15.68088
       H     7.11973   -0.03999  -15.48027
       O     6.26075    0.19036  -15.86148
      H1     6.50920    0.31278  -16.77682
       H     1.87655    8.91807  -15.62271
       O     2.72392    9.35507  -15.59235
      H1     3.00780    9.20667  -14.66706
       H     3.82471   12.44741  -16.71392
       O     3.65772   12.11837  -15.83648
      H1     3.19518   11.25670  -15.96162
       H     3.71544    1.61817  -13.04811
       O     3.02732    1.14091  -12.47637
      H1     2.76104    1.76548  -11.76763
       H     6.91876    4.96980  -16.45940
       O     6.21008    4.52761  -16.00007
      H1     6.71918    4.30129  -15.19483
       H    -1.34431    1.03139  -19.87672
       O    -0.86639    0.37484  -19.34687
      H1    -1.34194    0.30346  -18.53698
       H    -1.54337    3.16924  -17.13430
       O    -0.62497    3.26792  -17.41437
      H1    -0.07172    3.35791  -16.64783
       H    -3.52296    6.09608  -16.31815
       O    -3.99387    5.32487  -15.89743
      H1    -3.55140    5.31504  -14.97911
       H    -0.65877   13.13742  -15.46543
       O    -1.29262   13.30007  -16.15249
      H1    -1.95589   13.91192  -15.79588
       H     5.45934   11.51668  -18.29820
       O     4.88170   10.98011  -18.85054
      H1     5.44686   10.78683  -19.61116
       H    -2.48428    0.47632  -15.10151
       O    -3.36170    0.73281  -14.68590
      H1    -3.26556    0.52788  -13.77506
       H    -3.35531    2.28028  -15.88589
       O    -3.24726    2.78223  -16.68256
      H1    -3.51705    3.66733  -16.40958
       H    -0.47485   -0.16599  -16.56988
       O    -1.41985   -0.14589  -16.61747
      H1    -1.63957   -1.00289  -16.22437
       H    -1.67016    9.80153  -19.14915
       O    -2.50769   10.30794  -19.28622
      H1    -3.15942    9.69181  -19.72675
       H     4.97069    3.96508  -16.91808
       O     4.26307    3.50462  -17.48338
      H1     3.62038    4.15872  -17.83888
       H    -1.86690    5.43286  -19.06580
       O    -0.92025    5.68122  -19.06547
      H1    -0.59117    4.87223  -18.63526
       H     1.51852   12.15030  -15.31635
       O     0.89085   12.43922  -14.67196
      H1     0.21328   11.75033  -14.63048
       H     4.86927   11.17439  -14.96710
       O     5.08862   10.34358  -14.39739
      H1     5.88711   10.56481  -13.98341
       H     4.96522    7.49578  -16.07849
       O     5.57647    7.59006  -15.33218
      H1     5.53907    8.50439  -15.10157
       H     3.36145    2.13212  -15.30481
       O     2.83945    1.79425  -16.06784
      H1     3.16596    2.42519  -16.76797
       H    -1.62029    7.48987  -13.55532
       O    -1.92496    8.23870  -13.05718
      H1    -1.64784    8.15783  -12.17341
       H     2.08596   13.30743  -18.31150
       O     3.06306   13.15538  -18.42683
      H1     3.14072   12.35991  -18.99163
       H     6.45421    7.39254  -19.78706
       O     7.00001    7.67929  -19.05055
      H1     7.48845    6.86635  -18.77154
       H     2.15775   10.16764  -12.58364
       O     2.43795    9.27051  -12.51158
      H1     1.88731    8.89752  -11.89115
       H     8.43079   11.46990  -14.43510
       O     7.90724   11.31350  -15.22748
      H1     7.96978   10.43183  -15.55731
       H     4.46611    7.39143  -14.11481
       O     3.79027    7.04128  -13.52094
      H1     3.62894    7.76357  -12.94264
       H     3.81313   -1.16790  -16.90915
       O     3.75318   -0.88341  -17.81609
      H1     4.10738    0.04485  -17.88869
       H    -3.09463   10.36834  -17.64008
       O    -3.37522   10.39268  -16.69159
      H1    -4.28067   10.78142  -16.71370

