156
frame 8 | Written by MDAnalysis XYZWriter (release 2.4.3)
       H   -16.78767    1.18649    5.61754
       O   -16.32394    0.68530    4.89018
      H1   -16.72648    1.02349    4.09819
       H    -7.14066   -5.24716    5.48914
       O    -7.74132   -4.85116    4.81639
      H1    -7.30427   -3.99966    4.60897
       H    -9.05114   -1.72913    2.27672
       O    -8.07782   -1.55401    2.17668
      H1    -7.82813   -0.70297    2.67045
       H    -7.34325    0.42627    6.33066
       O    -6.72437    1.09715    6.08850
      H1    -5.80895    0.67678    6.05941
       H    -9.79043    6.14480    4.35709
       O    -9.29827    5.99298    3.50233
      H1    -8.40718    5.69512    3.76075
       H    -9.96110    3.75219    6.59096
       O    -9.28661    3.13308    6.76290
      H1    -8.71639    3.62287    7.34880
       H   -12.62394   -3.66474   -0.98120
       O   -12.05702   -3.13521   -1.50207
      H1   -11.40399   -2.82607   -0.87903
       H    -6.48951    4.99556    0.98163
       O    -6.40818    4.46851    0.15738
      H1    -6.85359    3.60874    0.23509
       H   -11.33984   -5.66616    3.31958
       O   -11.93573   -5.43406    4.02471
      H1   -11.46912   -5.64177    4.83492
       H    -9.12067   -5.46305    7.81792
       O    -8.92019   -4.52048    7.63239
      H1    -8.76922   -4.53199    6.67152
       H   -10.61383    0.14337    3.10397
       O   -10.33922    0.71014    2.32617
      H1   -10.15238    0.03137    1.66714
       H    -2.83780    1.57736    4.46061
       O    -3.79473    1.54878    4.26630
      H1    -3.88733    1.51504    3.30115
       H   -13.84556   -2.40817    1.94052
       O   -13.20472   -1.91298    1.35062
      H1   -13.59710   -1.85974    0.48272
       H   -11.88168   -0.95872    4.15626
       O   -10.89550   -0.98264    4.31063
      H1   -10.79954   -0.31204    5.03864
       H   -13.62954   -1.69481    4.53741
       O   -13.53942   -0.73480    4.58489
      H1   -14.36266   -0.28557    4.35175
       H   -10.21363   -3.17084    7.27884
       O   -10.76497   -2.49803    6.91470
      H1   -10.19593   -2.08160    6.27774
       H    -3.85964    1.72668    0.88998
       O    -4.16219    1.16098    1.50726
      H1    -4.91175    0.77898    1.04796
       H   -15.33279   -3.48493    3.32392
       O   -16.00178   -3.43130    2.61590
      H1   -15.97816   -4.16041    2.03727
       H    -7.14606   -1.52550    5.33231
       O    -6.80591   -2.04356    4.60763
      H1    -7.43007   -1.93795    3.89306
       H   -10.60950    7.55348    5.57460
       O   -10.75443    6.51983    5.69152
      H1   -11.69776    6.25571    5.58303
       H    -7.80301    3.64571    5.83755
       O    -7.47564    4.39283    5.35931
      H1    -6.49208    4.20038    5.19218
       H   -15.01010    4.04927    0.33451
       O   -14.59659    4.87609    0.04264
      H1   -14.67419    4.83460   -0.91358
       H   -11.95315    4.47492    2.23897
       O   -12.62814    5.11194    2.10457
      H1   -13.33752    4.65283    1.66803
       H   -13.19466   -4.00883    4.00708
       O   -13.86633   -3.49204    4.47795
      H1   -14.12885   -4.05715    5.23754
       H    -9.95808    1.53531    6.71999
       O   -10.22439    0.65875    6.38552
      H1   -11.11533    0.38541    6.73826
       H   -11.80721   -1.05445    7.27630
       O   -12.55632   -0.49860    7.35867
      H1   -12.96014   -0.57911    6.45312
       H    -4.99788   -0.60834   -1.02310
       O    -5.21739   -0.81824   -0.12681
      H1    -6.08709   -1.33857   -0.18778
       H    -8.92766    1.06548   -2.96502
       O    -7.97966    1.09874   -2.95258
      H1    -7.74418    0.20177   -2.74445
       H   -10.50781    0.68416   -1.41576
       O   -10.91340    0.90868   -2.25335
      H1   -11.50738    1.66199   -2.05564
       H    -7.30205    1.22485    4.26196
       O    -7.54629    0.84734    3.42809
      H1    -8.45890    0.98820    3.27423
       H   -10.69862    3.64112    0.87127
       O   -10.82836    3.31870   -0.05390
      H1   -11.77903    3.37320   -0.24077
       H   -10.66702   -3.77025    1.04435
       O   -10.61175   -2.83309    0.75517
      H1   -11.37419   -2.44719    1.22813
       H   -11.44164   -6.24391    0.99832
       O   -10.83084   -5.61545    1.38311
      H1    -9.92393   -5.84720    1.10660
       H    -7.29968   -3.00489   -0.75497
       O    -7.38669   -2.11513   -0.34380
      H1    -7.51902   -2.17867    0.57777
       H    -3.50543   -2.15315    4.71227
       O    -4.22100   -2.56182    4.29271
      H1    -5.03696   -2.03318    4.39584
       H    -6.99084    4.88668   -1.17894
       O    -7.42991    5.16914   -2.05272
      H1    -7.04280    4.61700   -2.74223
       H   -12.97168    5.18644    3.86488
       O   -13.08307    5.42129    4.81691
      H1   -13.23152    4.58315    5.20620
       H   -13.26465    0.21922    1.32491
       O   -12.88163    1.02238    0.94768
      H1   -12.05688    1.15855    1.47082
       H    -8.54691   -0.74632    8.13038
       O    -7.74983   -1.13347    7.70917
      H1    -7.39783   -1.81749    8.26928
       H   -10.15886    4.15106    3.16062
       O   -10.77251    3.51530    2.74537
      H1   -10.41881    2.64492    2.82792
       H   -12.00870   -0.34993   -2.95806
       O   -12.52355   -1.06850   -3.31933
      H1   -12.47664   -1.76991   -2.59432
       H    -7.91567   -4.74372   -2.25366
       O    -7.38524   -4.38723   -1.52554
      H1    -7.65132   -4.93095   -0.76554
       H    -4.95004    4.64524    3.67346
       O    -4.78878    4.13453    4.51030
      H1    -4.65048    3.20131    4.25223
       H   -14.29305    1.98987    1.39935
       O   -15.09014    2.58012    1.38800
      H1   -15.84004    2.05392    1.67818
       H    -3.53311   -1.95647    2.38717
       O    -3.17064   -1.88870    1.53119
      H1    -3.86245   -1.42724    1.08842
       H    -6.39727    1.38546    7.83514
       O    -6.21242    1.49879    8.79566
      H1    -6.98188    1.05779    9.26294
       H   -11.80006    5.94634    0.37767
       O   -11.41908    6.59964   -0.19674
      H1   -10.70230    7.08032    0.31974
       H   -12.78010    4.39424    7.54424
       O   -13.14373    3.60937    7.09480
      H1   -13.08880    2.92167    7.81090
       H    -8.94102    2.58145   -0.13575
       O    -8.10295    2.12666   -0.25040
      H1    -7.92512    1.88306   -1.18120
       H   -15.57817   -2.53415   -0.60951
       O   -14.83775   -1.89236   -0.84770
      H1   -15.22776   -1.32344   -1.54488
       H    -9.20988   -1.17547   -0.17793
       O    -9.50668   -0.25979   -0.12125
      H1    -8.73146    0.28607   -0.04195
       H    -4.24958   -4.69781    0.46206
       O    -5.09653   -4.50602    0.79165
      H1    -5.09129   -3.57900    0.99186

