156
frame 11 | Written by MDAnalysis XYZWriter (release 2.4.3)
       H     8.27023   -0.05814    0.62983
       O     8.70101   -0.51324   -0.12451
      H1     9.25771   -1.23996    0.27667
       H    10.01715   -2.06047   -2.76865
       O    10.92456   -2.09385   -3.10525
      H1    11.40294   -2.25599   -2.27248
       H    14.84328   -7.97150    3.76990
       O    14.18331   -7.30705    3.48441
      H1    14.59068   -6.65403    2.90336
       H    15.99671    2.84221    2.74915
       O    16.54709    3.27651    2.07711
      H1    16.84394    2.61614    1.46259
       H    18.54771   -2.77171    0.65667
       O    18.25488   -3.67702    0.51110
      H1    18.29737   -4.27674    1.27887
       H    15.78229    3.18785    8.45290
       O    15.63552    3.75725    7.70814
      H1    15.16872    4.48275    8.09713
       H    12.99661   -3.32302   -1.30666
       O    12.74432   -2.41077   -1.16907
      H1    11.98949   -2.37079   -0.51819
       H    10.00865   -4.99793    4.15944
       O    10.08608   -4.03188    4.12154
      H1    11.02956   -3.82331    3.98304
       H    10.72376   -4.33341    5.97934
       O    10.57698   -4.52563    6.96605
      H1    11.45283   -4.67178    7.37526
       H    14.20343    5.46875    5.36857
       O    13.81750    4.67657    5.80599
      H1    14.46420    4.24037    6.39898
       H    19.10771   -6.04123    6.91929
       O    18.62004   -5.25225    6.59220
      H1    17.74305   -5.52411    6.27823
       H     9.11277   -2.35246    4.10869
       O     9.04316   -1.45804    3.79692
      H1     8.17504   -1.42831    3.43861
       H    16.97060   -2.42863   10.89237
       O    16.21696   -2.12858   10.36398
      H1    15.84840   -2.86171    9.87596
       H    14.61397   -1.59774   10.81024
       O    13.75335   -1.25340   11.18876
      H1    13.57141   -0.49154   10.61084
       H    18.26180    0.96104    0.34606
       O    17.81345    1.75958    0.01421
      H1    18.56828    2.41584   -0.12834
       H    12.85145   -5.77640   -1.69678
       O    13.59818   -5.26333   -1.31249
      H1    13.88575   -5.64770   -0.50322
       H    13.14501   -3.79377    2.30413
       O    12.67594   -4.34454    2.94179
      H1    13.28657   -4.57454    3.68408
       H    19.16311    1.04711    2.70206
       O    19.61895    0.30284    2.27603
      H1    19.97935   -0.22986    2.95616
       H    11.65187   -5.98331    2.46290
       O    10.96873   -6.66247    2.27195
      H1    11.49115   -7.57510    2.20370
       H    14.68175    0.37889   -1.35423
       O    14.36850    0.82249   -2.16229
      H1    14.61489    1.73482   -1.93389
       H    14.53090    3.47946    4.91150
       O    14.90538    2.72597    4.36076
      H1    14.22361    2.07158    4.47768
       H    19.31287    1.95718    7.55215
       O    19.66408    2.77926    7.94424
      H1    19.00626    3.45827    7.52809
       H    10.95781   -2.18675    1.46271
       O    10.64675   -2.54284    0.62665
      H1    10.20879   -3.41262    0.80800
       H    15.75724   -3.92388    3.06015
       O    16.07285   -4.54425    3.80090
      H1    16.06553   -4.00238    4.59745
       H    13.71924   -2.84177    6.51970
       O    14.50819   -3.13491    6.04189
      H1    14.52578   -2.47514    5.32264
       H    16.43925    1.39205    9.49003
       O    15.75045    2.04105    9.76056
      H1    14.88256    1.59320    9.55459
       H     9.26246    2.76045    7.13175
       O     9.61205    2.68080    6.24326
      H1    10.07097    1.85587    6.16379
       H    16.04374   -4.62881    8.86017
       O    15.31605   -4.41474    9.43082
      H1    15.59510   -4.69636   10.30258
       H    17.34499   -0.75528    9.03770
       O    17.75249    0.10744    8.90470
      H1    18.51118    0.16645    9.58415
       H    16.74317   -3.53997    1.06133
       O    15.72863   -3.45200    1.20402
      H1    15.36194   -3.22708    0.30321
       H    16.90475   -0.13208    4.97700
       O    16.38193    0.35524    4.33465
      H1    16.46989    1.30622    4.38907
       H    18.99007   -5.19278    2.70817
       O    18.16760   -5.58139    2.32336
      H1    17.47479   -5.28841    2.98163
       H    15.30877   -5.27873    6.19617
       O    15.84764   -5.80007    6.75535
      H1    15.92159   -6.71558    6.47907
       H    10.28049   -5.29308   -0.23110
       O     9.53067   -4.94689    0.28629
      H1     9.52460   -5.60435    1.03016
       H    10.29838    3.30399    1.84643
       O    10.44358    2.38718    1.55194
      H1    10.76612    2.51796    0.63816
       H     8.13728   -6.05773    3.90829
       O     8.93903   -6.65861    4.09082
      H1     9.65000   -6.51000    3.43016
       H    10.57274   -1.29247    3.29571
       O    11.46859   -1.42850    2.92343
      H1    11.92942   -0.57846    2.93742
       H    16.22660    2.65292   -0.58284
       O    15.59559    3.11235   -1.12090
      H1    16.15445    3.15910   -1.90975
       H    13.89390   -6.24356    6.24426
       O    13.29938   -5.92292    5.51661
      H1    13.47886   -6.44439    4.70621
       H    16.44492   -2.78304   -0.94499
       O    15.59429   -2.73027   -1.42669
      H1    15.39362   -1.80027   -1.59393
       H    15.87004   -6.58373    0.47723
       O    15.15839   -6.00904    0.90226
      H1    15.44293   -5.10177    0.88797
       H    18.84922   -3.28031    6.70664
       O    19.05239   -2.36546    6.82605
      H1    19.64912   -2.06747    6.15281
       H     9.98245   -2.71490    7.20975
       O     9.65102   -1.79385    7.23404
      H1     8.88124   -1.83769    6.68098
       H    13.83334   -1.24638   -0.32569
       O    14.45988   -0.72341    0.19496
      H1    14.23544   -0.95610    1.13913
       H    18.73693   -8.37402    3.87502
       O    18.23156   -7.58240    4.20542
      H1    18.11304   -7.03482    3.43273
       H    12.85137   -2.00183    8.46767
       O    12.46526   -1.28844    7.82553
      H1    11.56257   -1.44025    7.89970
       H    17.73596    3.19094    3.43678
       O    18.43564    2.65800    3.80645
      H1    18.39650    2.88473    4.73034
       H    15.08914   -0.81988    4.03810
       O    14.56878   -1.61466    3.87100
      H1    13.65734   -1.26671    3.93661
       H    12.36605    1.79655    3.48111
       O    12.67445    1.03061    3.94174
      H1    11.91651    0.76499    4.46873
       H    12.28795   -4.41749    9.50139
       O    12.74591   -4.38712    8.66035
      H1    13.75101   -4.48288    8.89389
       H    12.62045    1.86868    9.78768
       O    13.13362    1.17957    9.37645
      H1    12.67596    0.55998    8.79183
       H    10.63254   -0.56566    5.94509
       O    10.58295    0.24160    5.39172
      H1     9.85145   -0.05890    4.80696

