156
frame 4 | Written by MDAnalysis XYZWriter (release 2.4.3)
       H     6.91781    7.56801   12.44158
       O     7.70481    7.12310   12.03452
      H1     7.88164    7.76148   11.38185
       H     6.60123    3.92599   10.14977
       O     5.69900    3.60790   10.12598
      H1     5.62357    2.82156   10.59454
       H     2.94056    3.90438    8.70614
       O     3.31950    4.58223    9.25486
      H1     3.98192    4.17454    9.80359
       H     4.82433    4.37941   17.93516
       O     4.38810    5.18567   18.34836
      H1     4.25755    5.81195   17.63204
       H     0.11205    5.23647    5.79968
       O    -0.03032    5.31933    6.77809
      H1     0.41957    6.13227    7.12543
       H     3.68210   12.74287   13.88975
       O     4.21673   12.10420   13.47252
      H1     4.21582   12.36699   12.56221
       H    -0.42446    4.38667   13.18589
       O    -0.76046    4.46420   14.07028
      H1    -0.44168    3.78534   14.67906
       H     2.96320    7.21500    6.05092
       O     2.61058    6.96933    5.20629
      H1     2.94845    6.09447    5.08627
       H    -2.14852    4.57473   10.03147
       O    -2.69930    3.94013    9.45900
      H1    -3.59274    3.94647    9.80549
       H     2.74092    6.05801   16.23913
       O     3.50428    6.58385   15.98844
      H1     3.24822    7.52815   15.99562
       H     4.76309    3.49912   14.51713
       O     4.76320    2.66915   15.04462
      H1     3.91176    2.62836   15.47772
       H     0.02122    6.02362    9.20726
       O    -0.62855    5.94480    9.98083
      H1    -0.52176    6.73577   10.56654
       H     0.10839    0.88623   14.86486
       O     0.11942    1.74448   15.25659
      H1    -0.19307    1.61118   16.16235
       H     3.96724    0.34494    9.85969
       O     3.57818    0.22501    8.99228
      H1     4.11402    0.80895    8.42548
       H     9.05068    8.46217   16.39325
       O     8.51402    9.09048   15.82664
      H1     7.61129    8.65548   15.83331
       H     4.47472    5.62499   14.56280
       O     4.75062    5.00181   13.88172
      H1     4.24214    5.20117   13.08525
       H    -1.89257    9.84317   12.57141
       O    -2.28228    8.99438   12.81675
      H1    -2.21443    8.99979   13.78639
       H     6.55387    6.21424    7.55273
       O     5.77374    5.61277    7.46166
      H1     5.06358    6.24004    7.63453
       H    -1.62571    6.77182    8.73259
       O    -2.16838    6.99770    7.91562
      H1    -1.71933    6.61080    7.16331
       H     2.40176    9.23841   14.97266
       O     2.19054    9.11535   15.92559
      H1     2.48472    9.82864   16.49574
       H     4.51502   13.18250   10.46437
       O     4.51493   12.22874   10.63238
      H1     3.61396   12.00919   10.46697
       H     6.31181    2.09182   13.98078
       O     7.19556    1.99558   13.55144
      H1     6.88453    2.05970   12.63900
       H     7.88881    6.67862   15.29993
       O     6.94866    6.58486   15.50357
      H1     6.66386    5.83988   14.99117
       H     5.78589    1.55222    7.43887
       O     4.87926    1.94825    7.46466
      H1     4.91582    2.47462    8.25603
       H     5.90238   11.26221   10.75249
       O     6.60302   10.58994   10.82271
      H1     7.30824   10.89656   11.38654
       H    -0.86463    6.65640   18.97420
       O    -0.56577    7.11033   18.19249
      H1    -0.50768    8.05319   18.27058
       H    -1.52524    5.30479   15.89193
       O    -2.14595    5.58347   16.57517
      H1    -1.55687    6.12043   17.17687
       H     0.45250   10.04475   12.43058
       O    -0.16597   10.74833   12.32953
      H1     0.05417   11.35439   13.00974
       H     0.54275    6.10449   14.36309
       O     1.07077    6.90992   13.97675
      H1     1.06448    7.58354   14.64171
       H     0.84752    6.07206   17.44828
       O     1.03701    5.44193   16.71020
      H1     1.31375    4.56702   17.03273
       H    -2.44071   10.35329   15.72934
       O    -2.49807    9.38212   15.73211
      H1    -1.79944    9.10061   16.29782
       H     1.57762    2.40807   15.95634
       O     2.20493    2.95744   16.48839
      H1     2.42857    2.37598   17.31418
       H     2.20166    5.09215   11.65746
       O     2.74126    5.78549   11.98119
      H1     2.16510    6.24226   12.72725
       H    -1.16476    2.71396    8.46874
       O    -0.65116    2.39531    7.68898
      H1    -0.24503    3.06970    7.23098
       H     6.33011    0.42485   10.86683
       O     5.62273    1.04849   10.94536
      H1     5.06782    0.82175   11.72409
       H     2.97350    7.25884   11.18685
       O     3.18192    8.15745   10.87871
      H1     4.02905    8.25285   11.33917
       H     5.62421    2.38941   17.07026
       O     5.76923    2.93111   17.85812
      H1     6.68663    2.84861   18.12992
       H     1.01156    2.36772    8.30880
       O     1.98522    2.28051    8.38690
      H1     2.14447    1.35818    8.73615
       H     1.33834    0.60798   11.34538
       O     1.59233    1.56455   11.35641
      H1     1.77166    1.89671   10.45460
       H     2.00769    7.44755    8.07991
       O     1.04271    7.44235    8.01720
      H1     0.76604    8.32509    7.72347
       H     3.70910    6.21091    8.67226
       O     3.75320    7.13889    8.37334
      H1     3.76106    7.68039    9.16352
       H     0.62188    9.49679   17.26790
       O    -0.19222    9.90791   17.59443
      H1    -0.06620   10.91485   17.61225
       H     5.82453    6.12947   18.76745
       O     6.68070    6.51081   18.50097
      H1     6.74428    6.29146   17.57768
       H    -2.04034    2.25905   13.10741
       O    -2.50565    1.53123   12.71996
      H1    -3.07387    1.19704   13.44262
       H     0.32379    7.66989   12.35591
       O    -0.01296    8.11111   11.56413
      H1    -0.84713    8.51016   11.82679
       H     4.12248    1.39483   13.69486
       O     3.97349    0.77207   12.98141
      H1     3.07218    0.98590   12.65661
       H     5.18063    9.15096   13.52498
       O     5.53790    8.82381   12.66346
      H1     5.80561    9.60204   12.17905
       H     2.81236    9.37342   12.26337
       O     2.69411    9.69100   13.22075
      H1     3.24604   10.49509   13.30142
       H     0.18767    4.80015   11.02492
       O     0.54829    4.11465   11.59943
      H1     0.37904    3.22324   11.29687
       H     1.72370   12.62513    9.90630
       O     1.92815   11.70773    9.92003
      H1     1.35825   11.39387   10.65586
       H     5.89234    7.77440   15.84512
       O     5.50850    8.65346   16.02228
      H1     5.31961    8.71669   16.96669
       H     8.67428    5.40733    9.26402
       O     8.31542    5.00492   10.05134
      H1     8.37982    5.59035   10.78945

