156
frame 3 | Written by MDAnalysis XYZWriter (release 2.4.3)
       H    -7.00763    5.69857   -6.53456
       O    -6.59677    5.06809   -5.93749
      H1    -7.36287    4.71533   -5.48758
       H   -11.85070    8.28990   -5.21489
       O   -11.11861    8.48077   -4.62551
      H1   -11.36014    8.23238   -3.68425
       H    -7.35112    6.19189   -8.77968
       O    -7.84261    6.35792   -7.98377
      H1    -8.76382    6.13446   -8.10239
       H   -17.11788   10.59780   -5.77139
       O   -17.27985   10.39019   -4.85066
      H1   -17.60776    9.46704   -4.76168
       H   -14.22267    2.10581   -5.59909
       O   -13.42593    1.67501   -5.23481
      H1   -12.86867    1.48554   -5.95055
       H   -10.42542    5.50948   -6.99642
       O   -10.44043    5.33742   -7.97475
      H1   -10.05250    4.44858   -8.14762
       H   -11.00766    5.71975   -4.78827
       O   -10.36606    6.09680   -5.38675
      H1   -10.50800    7.04780   -5.28350
       H   -13.58817    5.27763   -2.18865
       O   -13.80711    5.79417   -2.98590
      H1   -13.80533    6.74509   -2.74844
       H    -5.81112    8.69456   -6.94221
       O    -6.54378    8.22271   -6.51315
      H1    -6.87783    7.57068   -7.14361
       H    -7.08966    9.03486   -9.46708
       O    -7.87015    8.80953   -9.96296
      H1    -8.67091    8.88002   -9.41833
       H   -18.00897    3.92922  -10.27553
       O   -18.35718    3.21345  -10.77725
      H1   -18.79359    2.55286  -10.22552
       H   -12.17109    8.85744   -2.01583
       O   -11.27183    8.66983   -1.70755
      H1   -11.51071    8.05014   -1.02911
       H   -14.59777    8.66107   -1.80100
       O   -13.87980    8.63475   -2.48094
      H1   -14.00183    9.45631   -3.02136
       H   -10.16532    2.71190   -5.80155
       O    -9.73644    2.59338   -4.90098
      H1   -10.40237    2.94977   -4.31994
       H   -15.67432    1.69160  -11.91391
       O   -15.84419    2.50862  -11.36307
      H1   -16.80887    2.63396  -11.21145
       H   -13.48631    9.35879   -9.99957
       O   -12.80809    8.90135  -10.54249
      H1   -12.00063    9.40791  -10.36738
       H   -12.59674   10.36195   -6.62457
       O   -12.68326    9.67011   -7.29560
      H1   -13.47424    9.93083   -7.80504
       H   -11.12740    7.05582  -12.03375
       O   -10.67300    6.23924  -11.81986
      H1    -9.72240    6.49815  -11.74176
       H   -13.78514    2.90549   -9.29317
       O   -13.04861    3.51016   -9.28962
      H1   -13.44051    4.25697   -9.79128
       H    -7.67225    3.56653   -8.40458
       O    -6.77906    3.24915   -8.27498
      H1    -6.35163    3.76515   -7.63790
       H   -17.23852    4.36650   -4.18005
       O   -16.61797    4.05601   -3.51954
      H1   -15.78779    4.42895   -3.81791
       H   -17.20892    7.27211   -3.95846
       O   -17.94759    7.78970   -3.63170
      H1   -17.70527    8.40086   -2.93810
       H   -14.29105    6.33815   -8.68434
       O   -15.18033    6.33928   -8.26179
      H1   -15.80567    5.93339   -8.88123
       H   -12.97204    5.53582   -6.75971
       O   -12.90530    4.55717   -6.74809
      H1   -12.88460    4.19084   -7.61402
       H   -14.27570   11.43363   -3.49530
       O   -14.51025   10.77725   -4.25030
      H1   -15.51313   10.79381   -4.21063
       H   -11.98176    3.10384  -11.34527
       O   -11.11063    3.39969  -11.58591
      H1   -11.19774    4.37882  -11.65908
       H   -16.10691    3.24902   -6.55684
       O   -15.23344    2.86076   -6.73020
      H1   -14.63983    3.64498   -6.67049
       H   -13.40235   -1.08245   -3.84689
       O   -13.61991   -1.23552   -4.78359
      H1   -13.94723   -0.40264   -5.06352
       H   -10.21297    3.28991  -10.11379
       O    -9.77333    3.06221   -9.24099
      H1   -10.29675    2.32619   -8.89462
       H   -12.39790    7.16653   -9.68374
       O   -12.75402    6.39699   -9.25148
      H1   -12.02330    5.94330   -8.85282
       H   -17.34511    6.45374   -6.27616
       O   -16.45368    6.36933   -5.85674
      H1   -15.94326    6.12631   -6.63594
       H   -11.07519    1.03846   -1.55924
       O   -11.94328    1.33179   -1.76662
      H1   -11.92756    2.08099   -2.38580
       H   -15.38703    1.85681   -9.79596
       O   -14.90303    1.44389   -9.07117
      H1   -15.11878    1.96122   -8.29689
       H   -17.13968    5.88906  -10.73302
       O   -17.39153    5.54552   -9.84615
      H1   -18.14241    6.07583   -9.59688
       H   -14.73705    5.54054  -11.61746
       O   -14.06420    4.82953  -11.53552
      H1   -14.59002    4.05918  -11.73876
       H    -9.76864   11.10563   -7.38421
       O    -9.73931   12.04445   -7.02428
      H1   -10.52886   12.46407   -7.30866
       H    -7.21278    4.87561   -2.70421
       O    -8.05834    4.49025   -2.86830
      H1    -7.94726    3.67423   -3.35484
       H   -10.44459    8.87943   -7.55554
       O    -9.61706    9.32837   -7.75532
      H1    -8.97898    9.09911   -7.10922
       H   -12.99349    3.64193   -0.13176
       O   -13.43762    4.29740   -0.71408
      H1   -14.11108    4.74162   -0.17615
       H   -12.30427    3.08587   -4.20778
       O   -11.88475    3.59903   -3.48659
      H1   -12.37323    4.38700   -3.31776
       H   -16.34722   10.60101   -7.99752
       O   -16.60263   11.23417   -7.30835
      H1   -15.80251   11.55647   -6.96119
       H   -17.46319    4.74826   -6.45113
       O   -17.66909    3.83376   -6.20559
      H1   -18.48330    3.57791   -6.58812
       H   -14.98052    1.21685   -1.38486
       O   -15.63050    1.87397   -1.11050
      H1   -15.44614    2.72459   -1.56716
       H   -14.18452    8.85778  -11.90345
       O   -15.10457    8.73310  -12.18114
      H1   -15.46210    9.60125  -12.33644
       H   -15.76572    1.08664   -3.31834
       O   -16.14074    0.52705   -3.97763
      H1   -16.29975   -0.22416   -3.44998
       H   -18.87817    7.50597   -7.44569
       O   -19.05033    6.56461   -7.13839
      H1   -19.58101    6.21628   -7.87173
       H   -10.93430   11.35820   -5.74619
       O   -11.57594   11.09570   -5.09338
      H1   -11.19298   10.22163   -4.85333
       H   -11.86452    0.57180   -7.84957
       O   -11.37979    1.28208   -7.37663
      H1   -10.50324    0.85002   -7.22026
       H    -9.13761    6.29261   -2.90006
       O    -9.06281    7.21233   -2.68429
      H1    -9.79658    7.42650   -2.07575
       H    -8.93751    8.59585   -4.06357
       O    -8.44814    9.23818   -4.62806
      H1    -7.66995    8.81037   -5.02943
       H   -13.09602    7.92943   -6.87257
       O   -13.14475    7.27385   -6.11284
      H1   -14.04796    7.26286   -5.74763
       H   -15.06311    8.16002   -8.57812
       O   -15.19723    9.05386   -8.93127
      H1   -15.65866    8.99976   -9.81730

