156
frame 5 | Written by MDAnalysis XYZWriter (release 2.4.3)
       H    -0.25580    9.98993    7.40781
       O    -1.08335   10.45024    7.66175
      H1    -1.40347   10.18179    8.49059
       H    -1.87399   12.85316    3.16990
       O    -1.99396   13.74134    2.83491
      H1    -2.81491   13.75671    2.33586
       H     2.98602    3.75621    9.69093
       O     3.44938    4.05105   10.46552
      H1     4.31781    3.74565   10.53894
       H    -0.44140    5.09230    4.56611
       O    -0.02931    5.17285    5.41301
      H1     0.90669    5.14802    5.26318
       H     2.73138    5.82149    6.71299
       O     3.30008    5.87212    5.95679
      H1     3.99424    5.21932    5.90957
       H    -1.87595    4.54799    9.15712
       O    -2.66650    4.02092    9.00649
      H1    -3.41484    4.60947    8.80822
       H     6.13594    5.01849    5.22546
       O     5.55864    4.38265    5.69238
      H1     5.82359    4.67233    6.58177
       H     0.42775    7.22972    0.71169
       O     1.22546    6.74159    0.99024
      H1     1.65270    7.39271    1.56705
       H     0.57979    8.72220    6.27952
       O     1.05160    8.88303    7.12922
      H1     1.88235    9.37254    6.88500
       H     2.61448   15.20385    6.75541
       O     3.08370   15.70408    7.48266
      H1     3.13072   16.64955    7.34285
       H     0.22042    5.94403    9.40628
       O    -0.39284    5.56367   10.05869
      H1    -0.51005    6.33884   10.71244
       H    -3.86408    6.60727    9.95184
       O    -4.05743    6.79591    9.06000
      H1    -4.18325    7.78315    8.99311
       H     3.87105   10.80891    6.67788
       O     2.99612   10.74196    6.98471
      H1     3.07758   11.20695    7.84540
       H    -0.48284   12.37953    8.19796
       O    -0.03967   13.22435    8.47508
      H1    -0.19204   13.82653    7.68587
       H     2.41275   13.24422    5.31557
       O     1.92331   13.54708    6.07078
      H1     2.07693   12.77240    6.66377
       H    -1.28887   10.96190   12.37748
       O    -1.60792   10.07875   12.52766
      H1    -1.35976    9.76518   13.39654
       H     8.97265    7.05149    7.05568
       O     8.35895    7.43209    7.69738
      H1     8.45373    8.37726    7.60451
       H    -3.41524   11.08080   10.57529
       O    -2.78200   10.57608   10.08535
      H1    -2.31559   10.17267   10.85531
       H     2.79699    8.49557    3.26762
       O     1.90019    8.54975    2.87440
      H1     1.95689    9.37891    2.44905
       H     6.86911    6.21622    7.73825
       O     6.30065    5.47675    8.06518
      H1     5.49153    5.85948    8.44946
       H    -2.23710    6.66158    7.71216
       O    -2.04267    6.59087    6.76480
      H1    -1.18466    6.18040    6.79027
       H     5.94678   13.35596   10.96125
       O     5.70802   12.43080   11.24075
      H1     4.83783   12.22796   10.85581
       H    -1.29835   14.81197    5.42256
       O    -0.68218   14.63690    6.17957
      H1     0.03812   14.11621    5.77153
       H    -1.59343    8.98378    3.57371
       O    -1.55370    9.45754    2.69490
      H1    -2.33868   10.02218    2.71534
       H     2.45771   14.84552   10.85332
       O     3.21198   14.85791   10.25169
      H1     2.96620   15.22530    9.40728
       H     6.77621   10.82160   11.08335
       O     7.45430   10.17798   10.90343
      H1     8.32057   10.62685   11.13800
       H    -1.11447   11.48353    4.64712
       O    -0.53776   11.67488    3.85263
      H1    -0.67577   10.89739    3.27438
       H     1.31174    9.42514   10.28806
       O     1.55034   10.30759   10.64431
      H1     1.62074   10.15031   11.60181
       H     0.57959   12.10808   10.89511
       O    -0.05322   12.69518   11.35850
      H1    -0.57901   12.96606   10.59804
       H    -4.21304    9.75822    9.06709
       O    -4.86484    9.22335    8.51480
      H1    -4.62870    9.12292    7.56130
       H     6.15883   10.87207    3.28894
       O     6.29486   10.09546    3.91645
      H1     5.56998    9.44950    3.73046
       H    -1.06173    8.51685    1.21861
       O    -1.12239    8.01458    0.39483
      H1    -1.08443    8.66399   -0.30547
       H     2.43527   11.89631    2.08978
       O     2.75673   11.20631    1.51043
      H1     2.58697   11.51368    0.60736
       H     5.83073   10.76183    5.68719
       O     5.65469   11.27208    6.47628
      H1     6.26947   10.97482    7.16758
       H    -1.73143    3.37528    7.64410
       O    -1.04094    3.09378    7.08915
      H1    -0.88796    3.94476    6.56718
       H     8.74833   10.80401    7.81302
       O     7.94901   10.29276    8.06511
      H1     7.90863   10.42198    9.02499
       H     5.94618   13.27265    6.01396
       O     5.97435   14.22173    6.11259
      H1     5.16169   14.56055    6.50915
       H     3.33286    6.78679   12.24223
       O     3.48220    7.68396   11.91327
      H1     4.38460    7.94536   12.27123
       H     0.80017    3.03149    7.86120
       O     1.73061    2.88680    8.13938
      H1     2.23914    2.83195    7.31920
       H    -2.50513   11.02000    6.15000
       O    -3.04362   11.24023    5.40008
      H1    -3.75962   11.90389    5.58933
       H     2.35266    6.22383    8.50535
       O     1.46982    6.19681    8.04319
      H1     1.31009    7.14052    7.74577
       H     0.96005   12.52225    3.62931
       O     1.70364   12.98598    3.23549
      H1     1.40565   13.87352    3.00334
       H     0.41516    8.20962    4.06753
       O    -0.12385    8.11314    4.86054
      H1    -0.68463    7.34510    4.67007
       H     3.90005    5.69652    9.94091
       O     3.93973    6.49506    9.38507
      H1     3.91094    7.24719    9.98800
       H    -0.02722    7.08277   13.16744
       O    -0.55303    7.25712   12.35480
      H1    -0.89202    8.15018   12.35404
       H     4.12036    2.46692    7.05350
       O     3.60576    2.58578    6.25073
      H1     4.04420    3.29543    5.83271
       H     2.52529    8.86246   12.79003
       O     2.21464    9.75643   13.15562
      H1     2.92479   10.44117   13.12795
       H     0.37589    4.45406   11.11205
       O     0.73500    3.87249   11.85306
      H1     0.85659    3.00389   11.40343
       H     2.94851   12.67016    9.88484
       O     3.46197   11.86697    9.66795
      H1     2.97611   11.09745   10.00511
       H     4.13006    7.43289    4.73938
       O     4.44366    7.78486    3.90230
      H1     4.77511    6.99248    3.42093
       H    -3.12283    8.00634    5.96059
       O    -3.82915    8.55165    5.58322
      H1    -3.42797    9.43698    5.56839
       H     6.20378   12.68267    2.17580
       O     5.36770   12.36374    2.54912
      H1     4.87825   12.04435    1.80605

