156
frame 3 | Written by MDAnalysis XYZWriter (release 2.4.3)
       H     8.65581   -1.36667    0.02576
       O     8.24652   -2.20985    0.08276
      H1     9.01889   -2.80677    0.12543
       H    17.13721    3.65633    5.85727
       O    17.50237    3.05717    6.58966
      H1    16.94765    3.16444    7.38238
       H    16.15748    6.30130    5.07903
       O    17.03101    5.84614    4.75806
      H1    17.78131    6.41499    5.04292
       H    11.67363   -2.16215   -0.23780
       O    11.52586   -2.02732   -1.24841
      H1    11.92364   -2.80977   -1.62354
       H    13.31795    3.81250    1.94987
       O    13.99730    3.72176    1.25130
      H1    14.14562    2.79589    1.15044
       H    13.01292    4.07562   -6.25135
       O    12.82507    4.57984   -5.44879
      H1    13.04967    5.49352   -5.58793
       H    14.60825   -3.98486   -1.87465
       O    13.73475   -4.09860   -1.45270
      H1    13.21687   -4.64859   -2.04065
       H    15.80183    2.75116   -4.04683
       O    15.69096    3.66471   -3.72361
      H1    15.86217    4.13255   -4.55523
       H    11.15421    2.32006   -2.15680
       O    11.63610    2.55277   -1.39333
      H1    12.39716    3.08931   -1.77178
       H    12.59442    1.71213    5.37508
       O    13.19892    2.41995    5.60968
      H1    13.14510    3.03560    4.86051
       H    12.83047    5.12950    3.83326
       O    12.70967    4.17882    3.65739
      H1    11.81409    3.96010    3.96694
       H     9.89679   -0.74827    2.24606
       O     9.17559   -0.43693    2.87699
      H1     8.45355   -0.00786    2.32650
       H    17.52860    1.31067    2.45730
       O    17.99630    2.03889    2.02631
      H1    18.94638    1.78835    2.29662
       H    17.18912   -1.39314   -1.84933
       O    17.64596   -0.95948   -2.55596
      H1    17.64504   -0.02396   -2.30016
       H    14.06763   -3.66653    5.15503
       O    14.45165   -2.82528    5.46119
      H1    15.33384   -2.85912    5.09281
       H    14.96315    0.65403    0.75867
       O    14.81404    1.33161    0.06188
      H1    15.65160    1.57735   -0.36386
       H    16.55184    0.66243    4.29712
       O    16.79990    0.09393    3.53288
      H1    16.04190   -0.09597    2.94368
       H    11.84592   -1.79595    2.36807
       O    11.62063   -2.06438    1.46484
      H1    11.79533   -3.04813    1.60522
       H    17.04119   -1.65692    4.26274
       O    17.01752   -2.56635    4.62458
      H1    17.66972   -2.54270    5.36344
       H    13.43840    1.05859    8.09551
       O    13.42554    0.28735    7.48652
      H1    14.17487    0.34042    6.81105
       H    16.61884    9.07406    0.58829
       O    17.43835    8.42219    0.61694
      H1    17.01663    7.58895    0.46361
       H    10.83535    4.83310    1.23383
       O    10.61598    3.91726    1.02544
      H1    11.17641    3.69130    0.22716
       H    15.99552   -3.75910    0.57745
       O    15.17549   -3.39189    0.93132
      H1    14.62937   -3.60032    0.21197
       H    10.82330    0.66878   -3.71271
       O    10.09207    1.03006   -3.12266
      H1     9.34893    0.99406   -3.71997
       H    13.26714    0.78331   -1.64299
       O    13.24834    0.05327   -2.27414
      H1    12.70197   -0.63715   -1.76243
       H    19.00601   -3.85830    3.06065
       O    18.11895   -4.13446    2.85689
      H1    17.61344   -3.67668    3.56742
       H    11.66362    1.01632    0.88719
       O    10.82913    1.12455    1.36295
      H1    10.69510    2.08750    1.35123
       H    13.56236   -1.40019    4.66510
       O    13.05653   -1.14521    3.87952
      H1    12.52176   -0.41172    4.19419
       H    17.57110    2.05929   -0.42707
       O    17.43689    1.76086   -1.32014
      H1    18.09489    2.23913   -1.85153
       H    13.16994    2.80987   -4.42382
       O    13.22800    1.87881   -4.50555
      H1    13.20808    1.58356   -3.61728
       H    18.60844    5.13017   -2.55901
       O    18.90107    5.76265   -1.86444
      H1    18.79958    6.61426   -2.29002
       H    15.71242   -4.35920   -4.68316
       O    16.42945   -3.75964   -4.92012
      H1    16.27481   -3.00945   -4.39375
       H    12.39726    5.23450   -2.30651
       O    11.78461    5.96995   -2.43704
      H1    12.01792    6.33903   -3.28831
       H    17.27056    3.62990   -3.52051
       O    18.25604    3.70396   -3.45224
      H1    18.68447    3.29784   -4.24047
       H    10.05127    4.68477   -3.91264
       O    10.23976    4.31288   -4.78692
      H1    11.20755    4.40253   -4.95636
       H     8.50805   -2.41532   -1.73909
       O     8.79890   -2.42379   -2.65367
      H1     9.74833   -2.17782   -2.46627
       H    15.03232   -1.57453    1.65167
       O    14.87721   -0.68924    2.04039
      H1    14.44788   -0.87882    2.91979
       H    18.91028   -2.66434    0.06252
       O    18.02340   -3.11739    0.13464
      H1    18.12708   -3.37053    1.09774
       H    12.05642    1.35224   -5.83623
       O    11.60466    1.09409   -6.62851
      H1    11.53701    1.90083   -7.14553
       H    17.88631    3.71536    2.03040
       O    17.73596    4.67761    2.11792
      H1    17.06836    4.82328    2.78817
       H    15.82217    0.23745   -5.10880
       O    16.57765    0.70349   -4.67483
      H1    16.74171    0.09995   -3.91352
       H    16.28867    1.36474    6.60712
       O    15.66827    1.12162    5.85733
      H1    14.94890    1.72868    5.77972
       H    14.29610   -1.19065   -2.79080
       O    14.81808   -1.82359   -3.35399
      H1    14.20536   -1.66461   -4.17090
       H    10.36325    6.63246    1.38523
       O    11.03416    6.45636    2.08036
      H1    11.74349    7.06708    1.94389
       H    14.66445   -0.05766   -7.38015
       O    14.50688    0.60207   -6.71766
      H1    13.53294    0.66423   -6.82337
       H    14.60831    7.04714   -0.54935
       O    14.07348    7.79853   -0.55238
      H1    13.18987    7.54302   -0.88739
       H    10.96372    0.18854    4.98776
       O    11.29114    0.82653    4.36856
      H1    10.71750    0.79619    3.61085
       H    14.63404    4.28797   -2.35379
       O    13.84563    4.29392   -1.78630
      H1    13.99022    4.19190   -0.81527
       H     7.26981    3.40585   -0.38796
       O     8.13471    3.86226   -0.38967
      H1     8.82631    3.51207    0.21318
       H    16.63513    5.22151    0.68005
       O    16.43985    5.63356   -0.14888
      H1    17.26745    5.83203   -0.67950
       H    10.40923    2.84840    4.75762
       O    10.01560    3.69949    4.59913
      H1     9.09512    3.48227    4.61579
       H     9.59163    0.69696   -1.23067
       O     8.99828    0.55844   -0.47801
      H1     9.61703    0.63480    0.30155

