156
frame 5 | Written by MDAnalysis XYZWriter (release 2.4.3)
       H    -6.46791    4.37914   11.03887
       O    -5.97868    4.85739   11.78088
      H1    -5.48213    4.16175   12.18589
       H   -16.51632    6.32000    9.25756
       O   -16.62270    6.66544   10.14451
      H1   -17.60337    6.63127   10.38903
       H    -7.97774    0.84354   11.77426
       O    -8.01257   -0.16937   11.78654
      H1    -7.14741   -0.41925   12.15129
       H   -10.74008    6.66317   12.92568
       O   -11.45094    6.59589   13.63927
      H1   -11.63263    7.45306   14.03509
       H    -8.81639   11.13111   14.50048
       O    -9.38418   11.61841   15.11094
      H1    -8.73465   12.21296   15.54893
       H    -9.62246   14.39661   14.47649
       O   -10.22284   13.99631   13.83960
      H1   -10.13585   13.11246   14.13231
       H    -9.07608    9.43397    7.68514
       O    -8.17642    9.41770    7.89754
      H1    -7.96708    8.54299    8.27349
       H   -13.37202    3.56533   12.79918
       O   -12.93242    2.88202   12.33256
      H1   -12.25074    2.41710   12.82788
       H   -13.82210   10.33023    7.15487
       O   -13.26253   10.11956    7.94643
      H1   -13.85722    9.67363    8.59963
       H   -10.22919    8.07076    9.59077
       O   -10.67234    7.49200    8.93680
      H1   -11.64794    7.61879    9.07853
       H   -12.60049    1.29568   16.05610
       O   -11.89079    1.93162   15.96689
      H1   -11.39759    1.64542   16.75190
       H   -15.54812    3.94688   10.23893
       O   -14.93516    4.04571    9.46600
      H1   -14.57644    3.16429    9.43099
       H   -14.16999    4.85104   14.63164
       O   -13.90431    5.05114   13.69692
      H1   -13.06573    5.45164   13.68143
       H   -15.50280    8.28155   10.11985
       O   -14.70669    8.81483    9.96084
      H1   -14.63401    9.42259   10.73165
       H   -10.16202    4.27388    7.58548
       O   -10.01822    3.57334    8.25853
      H1    -9.10946    3.66075    8.58116
       H    -7.36484    9.40621   10.34021
       O    -7.30356   10.19904   10.83409
      H1    -7.34441    9.92551   11.73022
       H   -11.36475   10.15581    7.53942
       O   -10.59218    9.94942    6.94110
      H1   -10.89938   10.01402    6.01411
       H   -16.69153    6.86659   16.21778
       O   -16.26384    7.45497   15.57583
      H1   -16.16442    6.95554   14.76038
       H   -11.19189   10.72295   17.47764
       O   -12.04344   11.17736   17.54626
      H1   -12.28225   11.41074   16.61967
       H   -15.43504   10.67991   14.53826
       O   -14.96044    9.87008   14.50689
      H1   -15.49480    9.23024   14.95812
       H    -8.65266    3.80168   11.24565
       O    -8.90310    3.05286   11.84264
      H1    -9.63420    2.69099   11.32154
       H   -12.47765    9.64119   14.50343
       O   -11.90354    9.15628   15.11134
      H1   -12.56770    8.86436   15.79111
       H    -8.02651    1.25195   14.27009
       O    -7.41368    2.06679   14.17656
      H1    -7.98498    2.77290   13.79326
       H   -14.27988   10.25438   12.70897
       O   -13.98696   10.65352   11.85164
      H1   -14.62873   11.30600   11.50647
       H    -8.92444    5.91719   12.55116
       O    -9.34429    6.49323   11.92204
      H1    -9.94146    5.80737   11.55545
       H   -13.48181    2.02807   10.77167
       O   -13.56341    1.53106    9.90530
      H1   -13.49242    0.63691   10.13273
       H   -10.59358    6.31732    7.43035
       O   -10.64367    5.80970    6.61005
      H1   -11.64605    5.77902    6.47560
       H    -7.59578    5.29117    9.40612
       O    -7.50867    4.33468    9.45921
      H1    -6.87075    4.05344    8.83654
       H   -14.27276    6.94084   16.05291
       O   -13.50192    6.94410   16.61820
      H1   -13.16893    6.02379   16.57598
       H   -15.99982    6.64937   11.87297
       O   -15.87472    6.89996   12.79809
      H1   -15.21887    6.23371   13.12624
       H    -9.32181    7.99965   16.30158
       O    -9.12425    7.13198   15.93619
      H1    -9.81983    6.88175   15.30911
       H    -7.66736    7.63220   15.16345
       O    -6.88949    7.78733   14.59526
      H1    -6.01964    7.64647   15.13942
       H    -9.15357   10.31527   16.24610
       O    -9.32248    9.61024   16.90853
      H1    -8.71429    9.78193   17.67750
       H   -11.01426    3.95782    9.73833
       O   -11.25742    4.46869   10.54249
      H1   -11.97237    3.97834   10.92004
       H    -7.66984    5.02094   18.87667
       O    -8.04957    4.46177   19.60163
      H1    -7.86713    3.54577   19.26593
       H    -7.81602    7.01662   17.34853
       O    -7.21185    6.95982   18.08292
      H1    -6.32739    6.96285   17.60322
       H   -15.05372    4.12879   18.55277
       O   -14.24163    3.48588   18.57486
      H1   -13.61995    3.93098   17.96312
       H    -6.83633    9.41356   14.05925
       O    -7.21142   10.24514   13.70172
      H1    -6.50641   10.91685   13.66787
       H    -7.46001    6.08066   14.15922
       O    -7.78772    5.27373   13.76262
      H1    -7.15006    5.10395   13.04474
       H    -7.95725    6.94919   10.61715
       O    -7.50774    7.00909    9.77154
      H1    -6.63971    7.24427   10.00661
       H   -12.45690   10.54663    9.55655
       O   -11.86741   10.54210   10.30921
      H1   -12.36772   10.33869   11.10848
       H    -8.57016   -0.45954   13.42260
       O    -8.93582   -0.24977   14.28310
      H1    -9.79639    0.14405   14.11870
       H   -13.86237    7.49897   18.28561
       O   -14.26735    7.62620   19.16956
      H1   -13.70682    7.21914   19.78121
       H   -11.68366    1.81544   10.46934
       O   -10.83389    1.34252   10.70877
      H1   -10.86024    1.04680   11.61435
       H   -15.82003    4.80180   16.47907
       O   -15.56045    4.23647   15.74590
      H1   -16.32208    3.98702   15.18589
       H   -11.80045    3.78115   16.56164
       O   -12.17737    4.52927   17.07479
      H1   -11.87544    4.36927   17.95214
       H    -6.92576    2.39630   17.59266
       O    -6.30379    2.73130   16.91717
      H1    -6.75878    2.48795   16.06229
       H    -4.39658    1.98806   13.05040
       O    -5.09294    2.26103   12.52817
      H1    -5.89633    2.04457   13.08540
       H    -8.82523   11.66788   10.73648
       O    -9.53207   11.92580   10.14722
      H1   -10.36265   11.61730   10.45852
       H   -10.80333    6.40182   18.10386
       O   -10.67805    7.19105   18.68616
      H1   -10.56084    7.91171   18.06691
       H   -13.92854    7.38914    8.67778
       O   -13.54180    6.69644    8.10825
      H1   -13.33503    5.95233    8.71734
       H   -11.43447    1.32533   14.34503
       O   -11.31839    0.92162   13.43543
      H1   -12.16421    0.49846   13.38411

