156
frame 1 | Written by MDAnalysis XYZWriter (release 2.4.3)
       H     8.30072   20.15847   -3.12219
       O     8.06540   19.62394   -3.89078
      H1     7.31682   19.11987   -3.60746
       H     9.50885   15.77764    2.05539
       O     8.74397   16.38370    1.83546
      H1     7.98407   16.06778    2.35181
       H    16.80882   14.26557   -6.82960
       O    16.33296   14.68148   -6.11521
      H1    15.37322   14.55307   -6.31519
       H    18.08179   16.87544   -7.57676
       O    17.13834   16.88149   -7.63042
      H1    16.84764   16.20824   -6.96721
       H    14.62235   14.33472    1.82904
       O    14.97464   14.39521    0.93730
      H1    15.82385   13.87629    0.86633
       H    13.89711   18.43124   -5.62936
       O    13.96712   18.09999   -6.50309
      H1    13.14818   17.61947   -6.68684
       H    15.46878   10.13184   -3.13051
       O    15.71637   11.09805   -3.26755
      H1    15.06486   11.57283   -2.72105
       H    18.55695   13.92057   -4.03341
       O    18.95268   14.55254   -3.45157
      H1    19.87758   14.19860   -3.33726
       H    14.81815   11.66343   -8.85065
       O    15.08367   12.22937   -8.10474
      H1    14.99473   13.15411   -8.35322
       H     6.43621   13.08287   -5.16184
       O     7.19803   12.76061   -4.58663
      H1     7.08296   11.82559   -4.36046
       H    12.39141   18.10119    1.30088
       O    13.05586   18.43766    1.88281
      H1    12.50766   18.89033    2.53652
       H    12.20529   14.31175   -8.97239
       O    12.57221   14.92593   -9.65036
      H1    11.97058   14.97112  -10.38478
       H    15.88567   11.91468   -0.82299
       O    15.54214   11.20940   -0.25068
      H1    16.23688   11.41266    0.41803
       H    14.93654   18.72789   -2.55613
       O    14.23468   18.67933   -3.20118
      H1    14.30592   17.72354   -3.41046
       H    11.09370   16.76950   -6.11005
       O    11.49880   16.22779   -6.80464
      H1    11.86531   15.56196   -6.22243
       H    14.03399   16.29894    3.05495
       O    13.76849   15.49196    3.42747
      H1    13.50107   15.72075    4.35564
       H    15.86334   18.49467   -0.55163
       O    15.90767   19.39142   -0.93922
      H1    16.64822   19.35596   -1.59250
       H     9.73178   11.46349    1.32768
       O    10.32138   11.14723    0.63084
      H1    10.26004   11.80097   -0.07959
       H    10.50322   16.24676   -8.47541
       O     9.62446   16.02557   -8.76726
      H1     9.70904   15.37507   -9.49943
       H    15.67571   17.29435  -11.40827
       O    15.38730   18.25005  -11.40166
      H1    15.21258   18.35956  -10.46765
       H     6.15294   16.97900   -2.58276
       O     6.92682   17.60546   -2.41044
      H1     7.57982   17.52838   -3.07524
       H    11.81938   18.43946   -1.51313
       O    11.66715   18.49800   -2.47736
      H1    12.57232   18.58749   -2.80775
       H    12.73695   11.09684   -2.94938
       O    12.28511   10.34012   -3.35208
      H1    11.56161   10.19022   -2.69556
       H     7.91810   16.15383   -1.33202
       O     8.45457   15.71014   -0.68878
      H1     8.19562   16.17290    0.13028
       H    15.49736   19.43372   -8.30011
       O    16.40798   19.48368   -8.10194
      H1    16.71394   18.57868   -7.78912
       H     8.67424   19.11220   -8.19035
       O     8.99273   18.54669   -7.45760
      H1     9.11450   17.69609   -7.96081
       H     5.51971   18.51427   -1.32972
       O     5.00017   18.88215   -0.62228
      H1     4.16951   18.83274   -1.11142
       H     8.94500   12.88278   -5.04976
       O     9.87426   12.63572   -5.33324
      H1    10.14661   13.40288   -5.83601
       H    15.19597   16.02202    0.37963
       O    15.15737   16.92351    0.07194
      H1    14.17923   17.11177   -0.03173
       H    18.25977   13.12639   -1.08268
       O    17.30445   13.33898   -0.89759
      H1    17.13313   14.19237   -1.27493
       H     8.98171   19.41707    3.42565
       O     8.31796   19.64054    4.08989
      H1     8.35100   18.89781    4.76057
       H    16.20204   18.54220    4.79754
       O    15.45563   18.21907    4.32213
      H1    15.01950   19.05948    4.02253
       H    14.29239   15.23744   -9.14297
       O    15.20102   15.04193   -8.96455
      H1    15.66284   15.86245   -8.85592
       H     4.00507   16.43255   -2.55251
       O     4.79407   15.99984   -2.92105
      H1     4.95044   15.13763   -2.43914
       H    11.93104   16.11151   -1.03888
       O    12.08738   16.64239   -0.26114
      H1    12.21135   15.97747    0.40110
       H    11.63640   15.62267   -3.17809
       O    12.14353   15.10499   -2.49116
      H1    11.48362   14.43984   -2.17099
       H    11.17376   13.66976   -0.31177
       O    10.42329   13.48679   -0.84082
      H1     9.76627   14.16012   -0.57748
       H     5.11084   19.14223   -5.61133
       O     5.24164   18.34121   -5.07248
      H1     4.34067   18.02189   -4.81931
       H    11.78934   20.17347    4.67310
       O    11.65311   19.51268    3.98804
      H1    11.13385   18.82023    4.41027
       H     5.90160   19.74796    1.73434
       O     5.53412   19.40529    2.55950
      H1     6.28676   19.04533    3.01905
       H    14.87916   11.57615   -4.91958
       O    14.14158   11.69014   -5.53030
      H1    14.56836   11.91812   -6.37337
       H     7.01022   17.02329   -5.13515
       O     7.97511   16.84760   -5.15422
      H1     8.35318   17.46540   -5.79866
       H     9.90086   18.34697    0.63947
       O    10.40663   19.19837    0.53966
      H1     9.64543   19.83841    0.54173
       H    14.39110   16.59621   -5.52440
       O    14.56956   16.27303   -4.66482
      H1    13.80495   15.70837   -4.39536
       H    10.61329   17.42853   -3.56005
       O    10.42780   16.66732   -4.07213
      H1     9.44518   16.72076   -4.29259
       H    13.30796   13.56348   -2.54740
       O    13.64712   12.88936   -1.98698
      H1    13.18090   12.95139   -1.13039
       H     7.60139   13.59933    0.61158
       O     6.63568   13.70093    0.44852
      H1     6.55246   14.67432    0.50110
       H    12.26687   15.33148    2.69338
       O    11.36881   15.28896    2.24055
      H1    11.29714   14.33621    2.17658
       H    17.44552   17.46119   -2.27069
       O    17.92358   18.22062   -2.72848
      H1    18.85003   18.06583   -2.39846
       H    13.64538   13.26318    0.56637
       O    12.66655   13.21876    0.57684
      H1    12.48791   12.54359    1.22519
       H    16.37471   16.03565   -3.01675
       O    16.77441   15.80343   -2.12888
      H1    17.66182   15.48421   -2.39006
       H    13.22021   13.31348   -5.12006
       O    12.73201   14.13014   -5.03271
      H1    12.12319   13.99593   -4.32030

