156
frame 9 | Written by MDAnalysis XYZWriter (release 2.4.3)
       H     8.78037   -0.29073    0.12151
       O     9.07648   -1.16008   -0.20749
      H1     9.93760   -1.32095    0.26527
       H     6.48301   -0.60047    2.45473
       O     6.77477   -1.43849    2.77485
      H1     6.75179   -2.01285    1.99800
       H     3.70597   -4.42809   -4.95695
       O     4.56202   -4.72316   -5.33804
      H1     4.28132   -5.54911   -5.80629
       H     4.37116   -0.98538   -2.87173
       O     3.92147   -1.78202   -3.31627
      H1     4.40873   -2.52680   -2.94882
       H    10.46757   -2.71265   -2.72073
       O    11.21645   -2.43023   -3.21053
      H1    11.98416   -2.91619   -2.74685
       H    -0.53698   -2.69849   -4.43797
       O    -1.32231   -2.42747   -3.94797
      H1    -1.11066   -1.51846   -3.68478
       H     7.81612   -2.50364    0.30884
       O     7.09097   -3.16470    0.52217
      H1     6.25292   -2.84728    0.14671
       H     0.56273    1.32014   -5.52949
       O     0.66143    2.27538   -5.52937
      H1    -0.14393    2.55472   -5.99691
       H     2.17314    4.79078    1.72319
       O     2.55085    3.81094    1.73186
      H1     2.10955    3.34665    1.00064
       H     1.60409   -5.44941   -4.91615
       O     1.96852   -4.70122   -4.45238
      H1     2.16955   -5.13136   -3.60431
       H     0.17907   -4.82872    1.21935
       O     0.16377   -4.21382    0.49282
      H1     1.01454   -4.02609    0.09560
       H     1.97596    0.99820   -0.01069
       O     2.17930    1.91850   -0.23195
      H1     3.09483    1.98761   -0.45063
       H     1.10849   -3.54918   -5.65636
       O     0.50962   -2.91674   -6.16665
      H1     0.76584   -3.03577   -7.10193
       H     6.81511   -6.03944   -0.02134
       O     7.41546   -5.55393   -0.60592
      H1     7.48481   -4.63592   -0.21036
       H     5.06785    5.78384   -4.34681
       O     5.04065    6.63089   -4.81625
      H1     4.53694    6.55185   -5.64039
       H    11.52297    2.66351   -1.62931
       O    11.87414    3.52054   -1.94447
      H1    12.51516    3.84073   -1.30982
       H     1.35114   -2.16464   -0.58351
       O     2.01793   -2.71887   -0.97137
      H1     2.40243   -2.14167   -1.61498
       H     3.74047   -4.99875   -1.43637
       O     3.39014   -5.89674   -1.33592
      H1     3.30046   -6.32931   -2.20068
       H     9.30627   -2.43849    3.73895
       O     9.38520   -1.50459    3.47541
      H1     8.48154   -1.25812    3.26177
       H     3.90072   -4.39860    2.32603
       O     3.43812   -4.96805    2.94469
      H1     2.52344   -4.61136    2.82731
       H     6.51676    3.17565    1.13710
       O     6.98920    3.35240    0.33059
      H1     6.51986    4.14196    0.02247
       H     6.68535    6.01035   -2.44067
       O     6.46571    5.09207   -2.37738
      H1     5.55668    5.31419   -2.04603
       H     2.27149   -1.00250   -4.24244
       O     1.45946   -0.71738   -4.75807
      H1     1.19972   -1.51398   -5.28035
       H     6.08654   -0.04904   -2.22267
       O     5.22698    0.34162   -2.28346
      H1     4.95799    0.51975   -1.36397
       H     5.41834    4.05293   -7.73451
       O     4.49449    3.96553   -8.04107
      H1     4.14381    3.34885   -7.34005
       H     2.28012    3.92735   -2.82193
       O     2.86980    3.14434   -2.71589
      H1     2.32039    2.37411   -2.48557
       H    -2.46486    0.27929   -2.21035
       O    -1.53273    0.11129   -2.35818
      H1    -1.01640    0.91263   -2.21721
       H     3.37910   -0.05973    3.61479
       O     2.76125    0.03403    2.86152
      H1     2.29924   -0.79489    2.91666
       H     7.52458    1.26996    2.19624
       O     6.53328    1.26260    2.25855
      H1     6.32131    1.62830    3.17372
       H    10.85984    0.68447   -0.98927
       O    10.71656    1.50789   -0.51989
      H1     9.88916    1.78113   -0.87045
       H     7.02249   -1.91780   -5.30135
       O     7.95191   -2.17714   -5.06507
      H1     8.18678   -1.67272   -4.23571
       H    12.65496    0.15619   -2.23642
       O    11.75914    0.07947   -2.59982
      H1    11.54924   -0.84520   -2.65575
       H     5.94566    2.13096   -3.49269
       O     5.37851    2.50891   -4.19454
      H1     4.52438    2.69703   -3.78446
       H     7.27361    3.05988   -6.66045
       O     7.16849    3.70280   -7.33529
      H1     7.72904    4.51283   -7.23170
       H     0.33010    2.72566   -1.58055
       O     0.00665    2.30637   -2.39747
      H1     0.12624    2.93918   -3.09986
       H     8.79831    2.63310   -2.45992
       O     8.52333    2.02774   -1.71151
      H1     7.87838    2.39648   -1.08687
       H     3.84457    1.79826   -5.70076
       O     3.28657    2.16833   -6.34447
      H1     2.40540    2.12524   -5.93756
       H     6.22269   -4.45764   -1.73608
       O     5.71902   -3.75423   -2.16789
      H1     6.01700   -3.93434   -3.06109
       H     1.39053    6.24282   -3.11448
       O     1.71414    5.65887   -2.44277
      H1     1.04018    5.57270   -1.79098
       H     9.54826   -0.86076   -7.55705
       O     9.31917   -1.80859   -7.49705
      H1     8.91588   -1.88399   -6.63581
       H     5.07279   -2.47898   -6.26214
       O     5.41267   -1.65909   -5.79777
      H1     4.92832   -1.80319   -4.97984
       H     4.08338    4.81152    0.83136
       O     4.68622    5.10271    0.13530
      H1     4.75541    6.06846    0.32414
       H     4.55222   -1.70884    0.79027
       O     4.31969   -2.58762    0.60725
      H1     3.39408   -2.59273    0.22671
       H     7.99498    0.11775   -2.30942
       O     7.78104   -0.75788   -2.67196
      H1     8.18643   -1.25192   -1.94109
       H     8.91990    3.59071   -4.99542
       O     8.57483    3.55691   -4.10551
      H1     8.22523    4.37133   -3.81622
       H     5.23134    0.69104    1.16266
       O     4.47748    0.32145    0.68448
      H1     3.72918    0.40709    1.31291
       H     6.28936   -4.68945   -4.93242
       O     7.14170   -4.74010   -4.44262
      H1     7.56471   -3.87910   -4.66878
       H    -0.33551   -1.28385    0.14946
       O     0.16437   -0.77202   -0.48546
      H1    -0.45705   -0.66093   -1.24105
       H     4.71781   -0.66461   -7.09821
       O     4.36728   -0.15887   -7.83931
      H1     4.06477    0.69529   -7.43391
       H     8.44907    4.65840    0.61813
       O     8.90279    5.31083    1.18132
      H1     9.82340    5.05557    1.16296
       H     2.56233   -1.30148   -8.27371
       O     2.24641   -2.21092   -8.52184
      H1     1.84243   -2.10786   -9.38131
       H     9.83720    1.38189    1.12600
       O     9.31463    0.81398    1.79747
      H1     9.96055    0.14640    2.03895

