156
frame 7 | Written by MDAnalysis XYZWriter (release 2.4.3)
       H    15.26301  -10.62013   13.94433
       O    15.30191  -11.27615   14.57956
      H1    14.58538  -10.98877   15.20852
       H    11.99162   -6.28278    9.80214
       O    11.02256   -6.21867    9.93675
      H1    10.84088   -5.41250   10.42716
       H     5.61308   -8.74084   10.01358
       O     5.53368   -9.34905   10.73596
      H1     6.34708   -9.85743   10.66959
       H     9.53350   -2.05689   15.89709
       O     9.01445   -2.69702   16.40624
      H1     9.56778   -3.44778   16.29363
       H     9.03961  -14.09476   13.99369
       O     9.67301  -14.66593   14.43221
      H1     9.20404  -15.11746   15.18321
       H     8.15910  -11.54897   11.13146
       O     7.74998  -11.03267   10.43910
      H1     8.50111  -10.68240    9.98147
       H     8.03918   -3.16254   11.96374
       O     7.67236   -2.79983   11.13470
      H1     6.71646   -2.76021   11.16915
       H    12.85507  -13.57468   15.11523
       O    12.03271  -13.34968   15.59688
      H1    11.34181  -13.96309   15.28853
       H    14.28055   -5.88472   10.39737
       O    13.79289   -6.01844    9.56981
      H1    13.84178   -5.19669    9.02047
       H    11.58280  -11.76927   14.71076
       O    11.19485  -10.95037   14.37697
      H1    11.28842  -11.01031   13.40315
       H    12.53700  -10.02784   15.90777
       O    13.34777  -10.25771   16.41598
      H1    13.65804   -9.42962   16.74862
       H     8.18594   -9.45080   13.08603
       O     8.45489   -8.50217   13.00409
      H1     8.86219   -8.48973   12.12390
       H    10.40932   -7.09725   14.81458
       O    10.64289   -7.96050   14.45891
      H1     9.89895   -8.19470   13.83967
       H    13.45452   -1.94096   13.34708
       O    13.36508   -0.95790   13.43614
      H1    12.69619   -0.73653   12.78776
       H    10.45633  -10.21430   15.74355
       O    10.29187   -9.92979   16.67927
      H1    10.57948  -10.66269   17.24684
       H    11.09545   -8.05343   17.45181
       O    11.28540   -7.27184   17.97261
      H1    11.04885   -7.40572   18.90119
       H     6.99406   -3.00073   15.53048
       O     6.00237   -2.79501   15.45123
      H1     5.57286   -2.89983   16.33463
       H    14.43311   -7.68525    9.00817
       O    14.49859   -8.56057    8.53284
      H1    14.02941   -9.10190    9.16149
       H    10.01622  -12.07170   19.55514
       O    10.27431  -12.51927   18.75882
      H1    11.22411  -12.69802   18.86107
       H     7.09270   -4.64189    9.29260
       O     7.64390   -5.49634    9.27796
      H1     7.03088   -6.22149    9.07339
       H    13.70876   -7.20176   15.31217
       O    13.30065   -7.70938   14.55251
      H1    12.31705   -7.72132   14.55053
       H    12.11108   -4.25294   19.21318
       O    12.86815   -4.55389   18.79634
      H1    13.56229   -3.90044   18.90839
       H     7.21740   -7.18799   11.92921
       O     6.86564   -6.32734   11.67666
      H1     7.43491   -6.03716   10.94903
       H     6.60693  -11.72934   18.55498
       O     6.27366  -11.38341   17.70091
      H1     6.71330  -10.58115   17.52287
       H    11.64161  -11.27678   10.45429
       O    11.62109  -10.73046   11.23474
      H1    12.56492  -10.54980   11.35331
       H     4.74411   -9.85952   14.61163
       O     5.05288   -9.25815   13.89450
      H1     4.51013   -9.40624   13.12704
       H    10.56944   -9.33692   10.92248
       O     9.98202   -8.55890   10.72129
      H1    10.52631   -7.82650   10.48086
       H    10.62602   -6.09702   16.66929
       O    10.14107   -5.38909   16.20648
      H1    10.98773   -5.03306   15.85871
       H    14.37840  -14.48492   14.31463
       O    14.01412  -13.66516   13.93991
      H1    14.60446  -12.96378   14.29389
       H    14.66919   -7.69687   17.53639
       O    13.98592   -7.08177   17.14279
      H1    13.20406   -7.01500   17.69252
       H     7.88551  -12.02598   13.30140
       O     8.41482  -12.71032   12.77864
      H1     7.69944  -13.39581   12.61706
       H    13.09453  -14.13442   18.39380
       O    12.93541  -13.18552   18.25301
      H1    12.53272  -13.21857   17.34519
       H     6.69242   -3.08666   18.49738
       O     7.46887   -3.66919   18.55141
      H1     7.98592   -3.33014   17.78816
       H    14.50272   -6.92745   12.67436
       O    14.93916   -6.11445   12.40278
      H1    14.70236   -5.46001   13.07282
       H     7.65161   -5.02271   13.63793
       O     7.78359   -4.06584   13.69357
      H1     6.95666   -3.69632   14.00607
       H     4.47708   -4.44729   11.86352
       O     4.46422   -5.41677   11.67196
      H1     5.40619   -5.80408   11.74458
       H    13.86382   -8.93355   13.15305
       O    14.11632   -9.47947   12.41352
      H1    15.01263   -9.20136   12.15673
       H     4.23198   -6.26256   13.32905
       O     4.38748   -6.53283   14.25789
      H1     4.58609   -7.47454   14.15764
       H    12.56971  -14.62616   11.23929
       O    12.39334  -13.71248   10.96574
      H1    11.97009  -13.40921   11.81298
       H     4.53431   -7.21675   19.28114
       O     4.28761   -6.65454   18.54417
      H1     5.12775   -6.66379   18.04741
       H     8.33830   -5.54696   20.10212
       O     9.10794   -5.95717   19.60787
      H1     8.75049   -6.11380   18.72016
       H    13.02451   -3.39331   16.37367
       O    13.01732   -4.26459   15.94984
      H1    13.30300   -4.80384   16.66633
       H     7.48042   -8.29171   17.25526
       O     7.69071   -9.09010   16.79402
      H1     8.55953   -9.45121   17.02430
       H    16.21646   -5.99659   16.72093
       O    16.98170   -5.52997   17.14712
      H1    17.37429   -5.06547   16.41167
       H     7.58760  -10.33950   15.21542
       O     7.38601  -10.68145   14.34355
      H1     6.51956  -10.25039   14.18623
       H     6.22717   -6.59824   14.66827
       O     7.07547   -6.53163   15.12755
      H1     7.37375   -7.42518   15.07753
       H    13.97906   -3.73391   14.37824
       O    14.31691   -3.40769   13.51142
      H1    15.15248   -2.97807   13.76890
       H    12.48635   -2.95406   10.46377
       O    13.01226   -2.19344   10.21032
      H1    13.88184   -2.32008   10.65089
       H     7.19089   -6.36057   16.93449
       O     6.97269   -6.44197   17.87671
      H1     7.13916   -5.57867   18.25134
       H     9.63183   -3.46392   10.68801
       O    10.58218   -3.66545   10.73967
      H1    10.85782   -3.55562   11.64911
       H     9.67986   -3.45112   13.67284
       O    10.52690   -3.01081   13.50463
      H1    10.27052   -2.09351   13.23318
       H     9.67354   -9.06195    9.19356
       O     9.25517   -9.61168    8.47570
      H1     9.84155  -10.40618    8.46861

