156
frame 6 | Written by MDAnalysis XYZWriter (release 2.4.3)
       H   -11.80483   -7.95168   16.98574
       O   -12.72833   -8.14949   17.05842
      H1   -12.94744   -7.78359   17.92086
       H   -10.29138  -10.31867   16.74607
       O   -11.02052  -10.37764   17.40631
      H1   -11.28044   -9.49208   17.56664
       H   -16.84513   -4.59564   13.66540
       O   -16.01418   -4.06392   13.61411
      H1   -15.88141   -3.60982   14.44235
       H    -6.56949   -7.31074   10.15191
       O    -7.46536   -7.49959    9.79371
      H1    -7.47304   -8.46932    9.76811
       H    -9.53261  -11.69597   19.77792
       O   -10.47513  -11.70538   19.50417
      H1   -10.56820  -11.16016   18.73885
       H   -13.83418   -2.20495   14.79690
       O   -13.17252   -1.52800   14.44634
      H1   -12.43012   -2.01330   14.08748
       H    -6.06329   -4.70885   18.00121
       O    -6.45751   -4.88324   18.88084
      H1    -5.78195   -4.91266   19.53768
       H   -13.43300  -10.73377   15.19006
       O   -12.91624  -11.39216   15.72401
      H1   -12.32389  -10.92608   16.34185
       H   -10.33238   -2.96128   16.30286
       O   -11.11845   -3.41133   16.81957
      H1   -11.68852   -3.79385   16.16952
       H   -10.50797  -14.77134   19.55753
       O   -10.90551  -14.30997   18.79912
      H1   -10.94101  -13.36722   19.06947
       H    -9.49990   -8.81021   15.95478
       O    -9.14060   -9.62522   15.69796
      H1    -8.95251   -9.56854   14.75830
       H    -8.77013   -4.63856   18.90246
       O    -9.69341   -4.52884   19.21107
      H1   -10.19847   -4.29330   18.43827
       H   -11.18911  -10.54105   10.74441
       O   -10.22242  -10.82516   10.85006
      H1   -10.22630  -11.76721   10.73736
       H    -4.37610   -4.89179   12.74889
       O    -4.68567   -4.50487   11.90742
      H1    -4.49772   -5.26964   11.34095
       H    -7.90062   -4.17440   11.80177
       O    -7.40248   -4.47968   12.56059
      H1    -6.47215   -4.36673   12.28506
       H    -3.39466  -12.13915   19.40940
       O    -4.16092  -11.54163   19.48090
      H1    -4.35184  -11.28972   18.53989
       H   -11.56847  -12.02077   14.82212
       O   -10.86810  -12.25450   14.23949
      H1   -10.82895  -11.48721   13.72858
       H    -6.42682   -7.87018   15.30025
       O    -6.33819   -7.17074   14.62482
      H1    -6.89718   -7.46214   13.88212
       H    -5.18872  -12.02357   17.12778
       O    -4.76995  -11.12643   17.06965
      H1    -4.07025  -11.22971   16.38895
       H    -6.51299   -7.04383   18.89261
       O    -6.83371   -7.94011   19.09497
      H1    -6.89120   -8.34295   18.26056
       H   -13.27985   -8.46514   12.38367
       O   -13.82073   -7.90883   12.89996
      H1   -13.21181   -7.17625   13.09680
       H    -9.61473   -2.05257   19.64741
       O   -10.24773   -1.29729   19.79213
      H1   -10.91173   -1.20116   19.06936
       H   -13.29852  -10.38155   11.71735
       O   -12.67924   -9.89140   11.12471
      H1   -13.08764   -9.63110   10.27639
       H    -5.25354  -11.04546   13.61561
       O    -5.52401  -10.14721   13.74051
      H1    -5.83718  -10.10115   14.61705
       H   -10.05627  -13.38784   15.69033
       O    -9.67512  -13.43083   16.57905
      H1   -10.44187  -13.66754   17.19073
       H    -7.94147   -0.66399   18.15450
       O    -7.72335   -0.44575   17.24050
      H1    -6.88437   -0.92770   17.07790
       H    -6.64934   -1.64931   14.12651
       O    -6.33203   -2.53879   14.28492
      H1    -6.83981   -3.15599   13.81082
       H    -8.96406   -6.65065   11.35016
       O    -9.27593   -6.60206   12.30016
      H1    -8.71567   -5.89062   12.68465
       H    -6.13337   -9.84774   16.59695
       O    -6.69855   -9.06917   16.53586
      H1    -7.57148   -9.43254   16.34704
       H   -15.04479   -8.43034   18.16792
       O   -15.83035   -8.92688   17.90888
      H1   -15.59807   -9.72838   17.45194
       H   -13.56310   -6.64812   16.55138
       O   -14.08932   -5.84275   16.42027
      H1   -15.03470   -6.14475   16.28331
       H   -16.51491   -7.58058   16.50353
       O   -16.69138   -6.73835   16.09556
      H1   -17.29411   -6.23334   16.62788
       H   -12.30152   -3.79797   13.49484
       O   -11.44493   -3.32536   13.43153
      H1   -11.40391   -3.10075   12.49665
       H   -13.05983   -0.86591   17.85816
       O   -12.46627   -1.60876   18.19972
      H1   -12.03035   -1.90994   17.38348
       H    -4.38064   -8.80206   13.09368
       O    -3.73200   -8.20173   12.73242
      H1    -3.55997   -7.52131   13.38323
       H   -15.09258   -2.96521   16.89397
       O   -15.42869   -2.45730   16.16389
      H1   -16.31168   -2.11436   16.46811
       H    -8.49024   -1.82882   16.26767
       O    -8.91445   -2.37329   15.64654
      H1    -8.56233   -1.91334   14.89568
       H   -10.97187   -5.71179   11.30522
       O   -11.93025   -5.59877   11.19312
      H1   -12.18184   -5.27665   12.04753
       H    -9.22616   -8.32599   12.77865
       O    -9.35348   -9.26467   13.03553
      H1    -9.69367   -9.67906   12.18195
       H    -8.35525   -4.75344   15.65734
       O    -7.90914   -5.48650   16.17537
      H1    -7.27946   -5.82536   15.56223
       H   -10.08622   -7.39671   18.15362
       O   -10.08051   -7.58492   17.22043
      H1    -9.83038   -6.74205   16.80839
       H    -9.20891    0.26960   13.36388
       O    -8.81017    0.53941   14.24222
      H1    -9.54275    0.19676   14.82764
       H    -5.71161   -2.39576   15.85155
       O    -5.53637   -2.11953   16.77823
      H1    -4.96121   -1.36784   16.63354
       H    -9.31342   -2.42870   10.65250
       O   -10.11826   -2.17393   11.14472
      H1   -10.19628   -1.22782   10.93500
       H    -3.34900   -6.61601   17.34584
       O    -3.38104   -5.76487   16.83447
      H1    -3.09892   -5.06488   17.40498
       H    -2.62740   -2.86279   18.60890
       O    -3.55255   -3.23763   18.62150
      H1    -3.97262   -2.76035   17.90775
       H   -14.21381   -4.44902   17.87480
       O   -14.60297   -3.80096   18.42793
      H1   -13.85218   -3.26064   18.70371
       H    -4.82489   -6.18759   14.11692
       O    -3.93574   -5.83907   14.03914
      H1    -3.73692   -5.50090   14.91441
       H    -8.66354  -11.76554   17.66389
       O    -7.80155  -11.43620   17.98933
      H1    -7.29533  -12.27487   17.92639
       H   -13.82324   -5.47844   14.78120
       O   -13.56820   -5.18828   13.85951
      H1   -14.41757   -4.98413   13.40297
       H   -11.67764    1.17046   16.15572
       O   -11.60372    0.65859   15.36157
      H1   -12.22095   -0.09120   15.49505
       H   -15.54870  -10.22931   13.46699
       O   -15.27975   -9.79065   14.27320
      H1   -14.93604   -9.00490   13.83305

