156
frame 4 | Written by MDAnalysis XYZWriter (release 2.4.3)
       H     9.20507    4.76990   -8.85001
       O     9.97043    5.23669   -8.61650
      H1     9.79160    5.42658   -7.69162
       H     4.01303   -4.66350   -5.68998
       O     4.22203   -3.80122   -6.04765
      H1     3.53985   -3.46191   -6.65976
       H     4.10031   -0.97059   -3.03933
       O     4.16820   -1.69525   -3.64423
      H1     5.07195   -2.07819   -3.39615
       H     1.75088    3.50232  -11.11627
       O     2.44403    2.91278  -10.71944
      H1     2.63117    3.28898   -9.82573
       H    -0.70122   -2.59293   -4.45533
       O    -1.01926   -1.76577   -4.09312
      H1    -0.34382   -1.35321   -3.51358
       H    -1.15317    1.51126   -7.92510
       O    -0.35255    1.93859   -8.26433
      H1    -0.45710    1.96017   -9.22230
       H     3.58269   -4.95043  -11.30791
       O     3.10382   -4.68182  -12.14645
      H1     2.17792   -5.08280  -12.08653
       H    12.09552   -0.05201  -10.68106
       O    11.74368   -0.29554   -9.80260
      H1    10.85517   -0.71143   -9.94745
       H     0.81226   -3.93299  -10.95256
       O     0.80161   -3.86674  -10.03156
      H1    -0.10448   -4.30792   -9.86576
       H    -0.55161   -3.36265   -7.08592
       O    -0.24604   -2.60833   -7.51782
      H1     0.45196   -2.98611   -8.11341
       H     3.45671    4.82243   -5.71515
       O     3.65056    5.75570   -5.82333
      H1     3.22457    6.10073   -6.62647
       H     1.35283   -1.45006   -1.53101
       O     1.57471   -2.27161   -1.95637
      H1     1.99692   -2.11637   -2.75903
       H     5.90078   -4.46964  -10.19000
       O     4.96184   -4.82273  -10.10713
      H1     4.64386   -4.48451   -9.26184
       H     9.68916    1.89316   -7.14200
       O     8.77975    1.53137   -7.37710
      H1     8.67435    1.79513   -8.24136
       H     4.49166    3.34357   -4.32963
       O     3.61156    3.23878   -4.69063
      H1     3.05973    3.30797   -3.94753
       H     2.27165   -2.63894   -5.58854
       O     1.51590   -2.15502   -5.32609
      H1     0.86408   -2.23449   -6.03939
       H     4.76429    0.86002   -2.89618
       O     3.91862    0.75719   -2.41610
      H1     4.20931    0.48862   -1.54025
       H     4.60334    3.70108   -8.40273
       O     3.64497    3.58666   -8.53143
      H1     3.26402    2.99955   -7.86590
       H     4.97795    0.65097   -9.52005
       O     5.54997    0.79598  -10.27932
      H1     4.93217    1.07700  -11.03141
       H     6.54675   -5.09420   -7.33439
       O     6.77475   -4.16056   -7.31379
      H1     5.92637   -3.67507   -7.20857
       H     6.30841    3.27641  -12.83440
       O     6.39329    2.61178  -13.54691
      H1     7.22224    2.14066  -13.38500
       H    -1.45529   -0.08733   -4.84372
       O    -2.06841    0.55649   -5.14810
      H1    -1.85397    1.31537   -4.58467
       H     4.75171    4.63190  -12.55865
       O     4.98876    4.19524  -11.71743
      H1     4.19871    3.95398  -11.19763
       H     4.40575   -1.48045  -13.30946
       O     5.37066   -1.64820  -13.54752
      H1     5.43720   -1.05494  -14.33333
       H     7.13894    6.03139   -9.94047
       O     7.24304    5.36898  -10.68531
      H1     6.40080    5.01020  -10.96842
       H     7.04026   -3.60549   -8.91572
       O     7.27714   -3.51760   -9.84321
      H1     7.09891   -2.60637  -10.18380
       H     2.62810   -1.14042  -11.66160
       O     2.96324   -1.77138  -12.30018
      H1     3.09320   -2.61388  -11.90205
       H    10.23051    0.81889   -2.16732
       O     9.51675    1.51418   -2.13103
      H1     8.74365    1.09730   -2.50673
       H     8.61495   -3.85874   -6.15419
       O     9.23855   -3.24223   -5.88870
      H1     8.96999   -2.91715   -5.03545
       H     2.80248    0.73774   -4.31440
       O     1.96179    0.38051   -4.69680
      H1     2.08252   -0.57712   -4.81393
       H     0.68696    0.27728   -9.84356
       O     1.40230    0.15997  -10.45422
      H1     1.95860    0.94426  -10.48913
       H     5.62180    5.20195   -6.60366
       O     6.16213    4.53841   -7.07206
      H1     6.37652    3.89277   -6.39869
       H     4.71664    1.84747  -13.00010
       O     4.12669    1.37054  -12.38990
      H1     3.58853    2.08262  -12.00877
       H     7.14462    1.96732   -9.98888
       O     7.91427    2.51471   -9.78560
      H1     7.64712    3.42661   -9.88219
       H     0.03004    2.86358   -3.25288
       O     0.01802    1.90149   -3.36855
      H1     0.86357    1.58092   -3.65217
       H     7.03594    6.23385   -7.77649
       O     7.42292    6.90244   -8.38077
      H1     6.60768    7.40044   -8.66171
       H     7.12232    1.80563   -3.70497
       O     6.92850    1.09749   -3.08742
      H1     6.67401    1.54852   -2.28677
       H     2.14134    1.03635   -6.43489
       O     2.18595    1.46086   -7.29265
      H1     1.27010    1.63239   -7.46273
       H     4.60588   -3.78876   -2.85322
       O     5.35006   -4.12949   -2.38880
      H1     5.27502   -3.61872   -1.57675
       H     8.67806    0.19729  -12.38300
       O     8.90935    0.96300  -12.93747
      H1     9.56868    1.41643  -12.32896
       H     9.73551   -2.15349   -9.63323
       O     9.84138   -2.11191  -10.60752
      H1     8.95776   -1.98923  -10.93866
       H    -2.25370   -0.45257   -9.09907
       O    -1.74444   -0.57757   -9.87902
      H1    -1.35779   -1.44952   -9.81949
       H     9.24153   -0.55314   -7.67117
       O     9.33711   -1.45833   -8.01297
      H1     9.26059   -2.04230   -7.22539
       H     5.22839   -1.24266   -5.71205
       O     5.70618   -0.73804   -6.38102
      H1     6.34472   -0.15059   -5.90237
       H     4.50343    4.47995   -1.85842
       O     5.28421    4.26168   -2.35659
      H1     5.78991    5.02720   -2.47135
       H     7.83190   -0.75289   -3.41004
       O     8.41080   -1.47654   -3.77512
      H1     8.57407   -2.11125   -3.06575
       H     6.93563   -0.58014  -10.95863
       O     7.40731   -0.99794  -11.70770
      H1     6.67252   -1.31511  -12.34774
       H     7.67724    2.17836   -6.20416
       O     7.28247    2.77330   -5.47516
      H1     7.92507    3.54622   -5.55173
       H     3.07291    5.17738   -8.45598
       O     2.62543    6.05242   -8.41947
      H1     1.80232    5.96585   -7.92548
       H     6.99476   -4.90578   -5.28354
       O     7.43311   -5.44851   -4.62420
      H1     7.24201   -5.10319   -3.74187
       H     4.59721   -0.14276   -7.50915
       O     3.92581   -0.12458   -8.21898
      H1     3.29353    0.50706   -7.83440
       H     3.12156   -2.10527   -8.52312
       O     2.86933   -3.01762   -8.29417
      H1     2.31561   -3.38015   -8.99757

