159
frame 2 | Written by MDAnalysis XYZWriter (release 2.4.3)
       H    19.09788    1.25010   -9.48939
       O    19.89727    1.52454   -8.97189
      H1    19.55496    2.02459   -8.18056
       H    16.21480   -2.93512  -15.99119
       O    16.05325   -2.21696  -15.35494
      H1    16.72919   -1.50545  -15.43212
       H    11.65944   -0.65849  -18.22862
       O    12.18466    0.13034  -17.97448
      H1    13.00359    0.11951  -18.47442
       H    10.73308   -5.90542  -10.49807
       O    11.38668   -6.07494   -9.84617
      H1    11.38175   -7.02476   -9.61659
       H    13.81782    1.27261   -9.89635
       O    13.09087    1.17783   -9.22092
      H1    12.60158    0.40152   -9.51145
       H    12.10812   -1.73745   -7.18403
       O    12.44307   -2.65501   -7.35804
      H1    11.63916   -3.08106   -7.45553
       H    12.88285    5.13391  -14.00050
       O    13.07422    4.62746  -13.13702
      H1    12.47213    4.94626  -12.39915
       H    17.26069   -3.36473  -13.79990
       O    17.12846   -4.25995  -13.49036
      H1    16.17585   -4.36922  -13.48221
       H    14.02549   -5.03453  -13.10036
       O    14.23052   -4.65160  -13.95144
      H1    13.42180   -4.70637  -14.38731
       H    11.26144   -3.92815  -15.27934
       O    11.77408   -4.73354  -15.42385
      H1    11.25179   -5.43153  -15.06174
       H    17.79786    0.54215  -14.13514
       O    18.14920   -0.06347  -14.78289
      H1    18.30173    0.38361  -15.62613
       H     9.73253    0.23086   -7.30055
       O     9.12777    0.94061   -7.24082
      H1     8.46657    0.85532   -8.01559
       H    10.45142   -3.10649  -11.94778
       O    10.55094   -3.41814  -12.83595
      H1    10.20599   -2.71381  -13.37725
       H    13.05602   -0.08856  -14.91590
       O    12.22742   -0.13377  -15.39807
      H1    12.26192   -0.17983  -16.38768
       H     9.62581   -1.48078  -15.29986
       O    10.43582   -1.95133  -15.06962
      H1    11.10668   -1.31113  -15.09569
       H    13.85283   -1.65185  -11.59221
       O    13.66453   -1.78062  -10.69863
      H1    12.70808   -1.99537  -10.56521
       H    10.56352   -4.93115   -8.60453
       O    10.04517   -4.33305   -7.96205
      H1     9.22788   -4.80750   -7.78850
       H    14.91979   -4.03674   -9.08092
       O    14.23196   -4.32826   -8.43404
      H1    13.77278   -3.54686   -8.01725
       H    19.39818   -4.01835  -11.38492
       O    18.88635   -4.82886  -11.48996
      H1    18.24387   -4.55047  -12.17911
       H    13.70311   -7.26851   -7.08229
       O    14.29750   -7.04011   -7.84604
      H1    14.17900   -6.11290   -8.01153
       H    17.63725    3.03592  -11.62343
       O    16.88356    3.13537  -11.01645
      H1    16.36386    3.84664  -11.46644
       H     8.13328    2.28288  -11.10401
       O     8.82313    2.74639  -11.61880
      H1     9.00267    3.45380  -11.04704
       H    16.58652   -6.29635   -8.06040
       O    17.08831   -5.85142   -7.36298
      H1    16.76598   -6.23150   -6.53872
       H    16.78421   -1.85313   -8.15534
       O    16.19395   -1.09497   -8.30933
      H1    15.65410   -1.35538   -9.05691
       H    16.82919    5.12039  -14.22861
       O    17.17550    4.31508  -14.63551
      H1    16.35400    3.73903  -14.69064
       H    15.67485    2.02774  -11.46124
       O    14.92487    1.42809  -11.58151
      H1    14.18201    1.86310  -11.92498
       H    10.11988   -2.13509   -9.83439
       O    10.75436   -2.07164  -10.53488
      H1    10.69339   -1.14454  -10.86922
       H     8.12582   -1.25932  -13.28234
       O     8.46882   -0.37160  -13.45906
      H1     9.30427   -0.33244  -13.03909
       H    14.47198    3.35589  -13.72801
       O    14.92534    2.97302  -14.48711
      H1    14.34890    3.18227  -15.23338
       H     9.89832    1.19618  -11.50755
       O    10.41101    0.45918  -11.82506
      H1    11.09111    0.80622  -12.40673
       H     8.50021   -1.35422   -7.36325
       O     8.65766   -1.85678   -8.16636
      H1     9.08061   -2.70270   -7.90625
       H    12.16818   -3.51180   -4.42170
       O    12.28820   -2.56398   -4.57575
      H1    12.39001   -2.55620   -5.56836
       H    12.64104    0.43647   -5.95534
       O    12.29212    0.11180   -6.76295
      H1    12.86204    0.64700   -7.34236
       H    17.37705   -6.65702  -10.27078
       O    16.45568   -6.84362  -10.22220
      H1    16.43916   -7.81338  -10.12579
       H    13.48802   -7.23169  -12.24122
       O    13.25896   -7.77502  -12.98313
      H1    13.92799   -8.40540  -13.24281
       H    18.44737   -6.28319   -8.51933
       O    18.94056   -6.50720   -9.33541
      H1    18.91486   -5.70323   -9.93223
       H    14.47939   -6.38565  -10.76182
       O    13.73088   -5.95412  -11.17411
      H1    12.88320   -5.96471  -10.66647
       H    19.10412   -1.13915  -13.96788
       O    19.44114   -1.96229  -13.49180
      H1    19.90532   -1.65372  -12.70526
       H    16.95491   -5.20166  -15.76918
       O    16.16835   -5.72158  -15.79111
      H1    15.54289   -5.34818  -15.15107
       H    14.21087    3.29739   -7.81950
       O    15.01804    3.44851   -7.26635
      H1    15.26834    2.48910   -7.06156
       H    16.30100    3.98312   -8.10172
       O    17.15992    4.26461   -8.53154
      H1    17.11470    3.83892   -9.46206
       H    15.62237    0.08762   -6.85971
       O    15.44859    0.65858   -6.09160
      H1    15.28824    0.04027   -5.35805
       H    17.31251   -0.10447  -11.26793
       O    17.73633   -0.12953  -10.37130
      H1    17.02306   -0.42369   -9.79950
       H    15.13757   -0.91791  -13.95828
       O    14.43156   -0.45209  -13.55371
      H1    14.80583    0.40193  -13.24116
       H    15.45241    6.06860  -12.19781
       O    15.27990    5.23568  -11.70998
      H1    14.38353    5.02338  -11.97958
       H    12.14054    1.64844  -14.16070
       O    12.30068    1.91382  -13.26305
      H1    12.42152    2.89638  -13.30538
       H    11.52940    3.81877   -8.25405
       O    12.35673    3.36894   -8.15672
      H1    12.48738    2.66200   -8.82480
       H    12.65119   -5.45115   -6.42050
       O    12.24975   -5.19881   -5.58032
      H1    11.31841   -5.05998   -5.86638
       H    10.93842   -4.51188  -18.07760
       O    11.86500   -4.22578  -18.02107
      H1    11.96443   -4.50694  -17.10580
       H     9.72326   -5.00652  -12.30339
       O     9.09197   -5.77912  -12.02252
      H1     8.63736   -5.27852  -11.29716
       H    18.60398   -3.17574   -6.19375
       O    18.24087   -3.08900   -7.06056
      H1    17.71681   -3.86994   -7.17579
       H    16.33282   -4.33805  -10.73481
       O    15.86592   -3.58745  -10.38330
      H1    15.00151   -3.51899  -10.80008
       H    18.13625    2.54757  -13.78387
       O    18.11016    1.91767  -12.98949
      H1    19.00553    1.49281  -13.02384

