159
frame 0 | Written by MDAnalysis XYZWriter (release 2.4.3)
       H     6.55637   -7.48341  -13.96508
       O     5.87335   -8.14314  -13.80079
      H1     6.41238   -8.72397  -13.29719
       H     6.49076  -16.40067  -11.07166
       O     5.57272  -16.58302  -10.99427
      H1     5.12184  -16.21801  -11.76932
       H    12.54887  -14.13271   -2.11010
       O    12.81367  -14.49067   -2.99443
      H1    13.21526  -15.35486   -2.92358
       H     9.73192   -9.49096  -10.76136
       O     9.11241   -8.81282  -10.85258
      H1     9.68093   -8.05459  -10.96281
       H    10.83288   -6.09510   -9.56802
       O    11.71462   -6.42003   -9.31604
      H1    11.67403   -7.11121   -8.62826
       H     7.73431   -8.60206   -9.70137
       O     7.05881   -8.55430   -9.02330
      H1     6.37039   -7.96739   -9.40236
       H     6.12169  -13.00086  -11.08241
       O     6.16217  -13.21154  -12.01816
      H1     7.07518  -13.39686  -12.24620
       H     7.89087  -11.07406   -1.73419
       O     8.79885  -11.31735   -1.82930
      H1     9.12918  -10.89808   -2.63756
       H     4.77700  -13.83214   -4.33661
       O     4.11594  -13.55291   -5.05938
      H1     3.32443  -13.74697   -4.58388
       H    13.83715  -11.84451   -4.77463
       O    14.16928  -12.66728   -4.39369
      H1    13.42583  -13.23309   -4.28840
       H     8.26187  -17.03461   -9.03375
       O     8.86937  -16.35846   -9.33942
      H1     8.63078  -15.95752  -10.19720
       H     7.72095  -17.23984   -4.54880
       O     7.26274  -16.45604   -4.84021
      H1     7.82517  -15.92743   -5.46192
       H     8.72953  -11.28885  -14.07678
       O     9.17966  -11.30573  -14.98991
      H1     8.90348  -10.48265  -15.41608
       H     4.71188  -13.71760   -8.69506
       O     5.06034  -13.10630   -9.41982
      H1     5.31789  -12.23500   -9.06168
       H    12.15145  -12.85995   -8.98030
       O    11.36954  -13.04559   -8.44753
      H1    11.24680  -14.00128   -8.40814
       H    13.49716  -13.02051  -10.92404
       O    13.28041  -12.21569  -10.43901
      H1    14.13395  -11.71955  -10.40793
       H     6.55876  -14.18608   -8.99247
       O     7.26456  -14.50269   -8.38229
      H1     7.74572  -15.15776   -8.86177
       H    10.04795  -10.56172   -7.54372
       O    10.62511   -9.78135   -7.49018
      H1    11.42834   -9.92666   -8.00907
       H    14.05289  -14.37232  -12.56731
       O    13.87622  -14.55376  -11.61490
      H1    14.71714  -14.39422  -11.16986
       H    10.79575  -19.70563   -8.29784
       O    11.61491  -19.26707   -7.94067
      H1    11.36778  -18.40881   -8.25131
       H     5.15087  -10.43541   -5.69121
       O     4.60413  -11.16414   -6.16073
      H1     4.64304  -12.04039   -5.61969
       H     3.40652  -10.77487   -7.89914
       O     2.68854  -10.49062   -8.50328
      H1     1.82379  -10.62060   -8.06360
       H     6.14547  -15.38746   -2.22895
       O     5.67330  -15.08191   -3.05677
      H1     6.14046  -15.77021   -3.70066
       H    12.46481   -8.44326   -2.28945
       O    11.92811   -8.94428   -2.95427
      H1    11.95430   -9.86694   -2.74773
       H    11.57216  -18.01457   -5.77672
       O    12.10484  -17.80435   -5.05461
      H1    12.85748  -17.30142   -5.51909
       H     7.87174  -11.38705   -8.04243
       O     8.71828  -11.65966   -7.57299
      H1     9.12670  -12.18711   -8.24249
       H    13.41272  -15.33118   -6.24156
       O    14.16347  -15.88573   -6.49196
      H1    14.18966  -15.86674   -7.44381
       H    12.27238  -10.03876   -6.03303
       O    12.98552  -10.15759   -5.37848
      H1    12.82779   -9.60710   -4.59702
       H    13.56973   -9.46219   -9.22252
       O    13.09262   -9.01739   -8.48372
      H1    13.82465   -8.69921   -7.88402
       H    13.77837   -8.89128   -5.98910
       O    14.45464   -8.23692   -6.30112
      H1    14.16316   -7.33172   -6.05476
       H    11.85471  -16.05594   -9.76566
       O    11.42028  -16.10707   -8.91964
      H1    10.45366  -16.22642   -9.13751
       H     6.81541  -18.97583   -9.20417
       O     7.02686  -18.19117   -8.62308
      H1     6.46468  -18.22623   -7.83799
       H     8.47118   -6.65930   -6.58142
       O     7.49132   -6.68194   -6.72388
      H1     7.33398   -7.24770   -7.47442
       H    11.90835  -13.99992   -4.67135
       O    11.80089  -14.08877   -5.66528
      H1    11.65455  -13.18978   -5.90883
       H    11.86905  -11.51648  -11.27844
       O    11.14342  -10.96731  -11.54873
      H1    11.48241  -10.34723  -12.19931
       H     5.81415  -11.02313   -7.67579
       O     6.26086  -11.00560   -8.49798
      H1     6.36526  -10.08877   -8.73032
       H    12.77502   -8.53348  -12.36763
       O    12.39865   -8.96832  -13.15315
      H1    13.24732   -9.34747  -13.50183
       H     9.94423  -14.03966  -14.36540
       O    10.15090  -14.87825  -14.72269
      H1    10.12985  -14.73225  -15.72614
       H    14.47422   -7.43519  -10.88812
       O    13.57105   -7.34827  -11.30328
      H1    12.91982   -7.01504  -10.58191
       H    15.66168  -10.86845   -8.92781
       O    15.35102  -10.63435   -9.83934
      H1    16.11379  -10.69312  -10.41480
       H    12.10209  -15.36974  -11.95885
       O    11.18516  -15.56529  -11.68096
      H1    10.66383  -15.43692  -12.47369
       H     4.97588  -15.90403   -9.18897
       O     4.69240  -15.58708   -8.31362
      H1     5.51860  -15.22259   -8.05386
       H     9.39436  -13.95931  -12.08673
       O     9.23102  -13.01973  -12.30052
      H1    10.05318  -12.55873  -12.10796
       H     3.67810  -16.02658   -7.16212
       O     2.91422  -16.37842   -6.63491
      H1     2.60816  -15.75822   -5.97201
       H    10.31904   -7.77991   -6.23674
       O    10.25616   -6.83932   -6.32086
      H1    10.18809   -6.47575   -5.47015
       H     8.16223   -9.50249  -12.25507
       O     7.61332  -10.17477  -12.80247
      H1     7.36485  -10.81572  -12.12328
       H     6.65492   -8.41937   -5.62537
       O     6.20592   -9.16776   -5.19673
      H1     6.81602   -9.87810   -4.93983
       H     8.68861  -14.71714   -6.96534
       O     8.97355  -14.89076   -6.11193
      H1     9.90951  -15.00268   -6.17374
       H    12.64965  -11.99803   -2.68089
       O    11.79578  -11.59370   -2.26651
      H1    11.52302  -12.42884   -1.82837
       H     4.89747  -17.43141   -6.35477
       O     5.55615  -18.14344   -6.26168
      H1     6.31431  -17.76865   -5.76624
       H     3.17647  -12.79635  -13.86593
       O     3.92291  -12.23096  -13.53976
      H1     4.59143  -12.79409  -13.12007
       H     8.17158  -11.65048   -5.78990
       O     7.77417  -11.53541   -4.89435
      H1     7.53936  -12.44614   -4.60398
       H     7.70913  -15.28788  -12.73652
       O     8.22580  -15.50930  -11.98510
      H1     8.55529  -16.39669  -12.18059

