159
frame 8 | Written by MDAnalysis XYZWriter (release 2.4.3)
       H    17.09654   16.21493    2.20288
       O    17.16917   16.29568    1.25324
      H1    17.16211   15.36000    1.04335
       H    18.82413    6.55133    6.18431
       O    19.58593    5.99977    6.28658
      H1    20.27240    6.42703    5.77552
       H    17.38097    7.14601    9.72515
       O    16.42158    7.17221    9.81689
      H1    16.17033    6.74479   10.65732
       H    16.52654   12.19648    4.54858
       O    16.91938   11.79404    3.77380
      H1    16.74470   10.81048    3.89792
       H    14.26925    4.15987    1.94365
       O    14.67415    4.87747    1.39982
      H1    15.28673    4.38038    0.89215
       H    14.75989   15.78075    3.84693
       O    14.16725   15.04385    3.87680
      H1    14.65047   14.44726    4.43262
       H    15.72116    3.00416    7.33997
       O    15.77760    3.63256    6.57751
      H1    15.88909    4.50353    7.00201
       H    13.30004    8.96872    2.43758
       O    13.03078    8.17230    2.02588
      H1    13.84523    8.02523    1.46655
       H     8.45946    9.25215    4.01228
       O     9.00768    8.90763    3.23996
      H1     8.54922    9.27801    2.50633
       H    17.70603   11.28351   -1.56977
       O    17.11661   10.69028   -2.10985
      H1    16.25238   10.66981   -1.63750
       H    16.76801   12.94730    2.13547
       O    16.83612   13.39250    1.28912
      H1    16.08826   13.20006    0.75211
       H    10.51555    8.00959   -2.83370
       O    11.16612    8.52291   -2.32405
      H1    10.67446    8.74214   -1.51293
       H    19.13624    8.29112    8.93615
       O    19.29321    7.36460    8.77618
      H1    19.14400    7.16797    7.84475
       H    13.19704    4.75487    5.01166
       O    13.45017    3.81138    5.20540
      H1    14.27675    3.88404    5.74447
       H    12.38284   11.54444    8.92760
       O    11.40271   11.58620    9.11806
      H1    11.27267   12.46730    9.41560
       H     9.49221    7.73555    6.02043
       O     8.98043    6.92206    6.29860
      H1     9.39237    6.18572    5.82331
       H    15.02644   10.17022    9.79986
       O    15.41149    9.67954   10.55224
      H1    15.89747    8.96200   10.19057
       H    12.37621    7.50796    6.85118
       O    12.80357    8.18124    6.26085
      H1    11.99796    8.59383    5.85388
       H    17.82435    9.09893    3.63952
       O    16.86974    9.04839    3.81733
      H1    16.70896    8.35694    4.46031
       H    18.81433   10.24337    0.24837
       O    19.12633    9.40925    0.57422
      H1    18.52015    8.70846    0.41832
       H    12.07237   11.58403   -2.38876
       O    12.62234   10.82977   -2.61946
      H1    11.98077   10.13663   -2.74388
       H    11.35384    5.53610    4.37855
       O    10.49995    5.14549    4.67593
      H1    10.77455    4.42723    5.33810
       H    18.06432   10.98899    5.83800
       O    18.29535   11.27931    6.70591
      H1    19.24979   11.15181    6.85401
       H    16.24907    6.84613    6.59812
       O    16.89760    7.22355    5.93534
      H1    17.01458    6.58018    5.20661
       H    10.25916   10.06156    5.68043
       O    10.69926    9.35457    5.23846
      H1    10.21020    9.27189    4.41235
       H    13.13909   15.84195    2.22504
       O    12.52897   15.95297    1.48126
      H1    12.51641   16.92111    1.30222
       H    10.55853   13.67917    4.91055
       O    10.66509   12.76379    4.76082
      H1    11.41086   12.53775    4.17188
       H    12.38328   15.17556   -0.11598
       O    12.53737   14.59993   -0.89436
      H1    11.69204   14.69678   -1.43894
       H    11.67002    4.08707    1.07991
       O    11.68392    3.90274    2.02661
      H1    11.03159    4.44225    2.46313
       H    17.03505   12.23682    9.63550
       O    16.62792   12.72773    8.91263
      H1    17.03826   12.22353    8.13870
       H    13.27271    7.05625    3.45693
       O    13.11247    6.51855    4.25656
      H1    12.98083    7.16067    4.96974
       H    16.98444   14.48052    5.47766
       O    16.13735   14.04261    5.58735
      H1    15.89803   14.20156    6.46168
       H    19.57556   12.35124   -0.24671
       O    18.65591   12.00733   -0.26315
      H1    18.04096   12.39446    0.31058
       H    14.90881   12.04608    8.90644
       O    14.22036   11.35620    8.78858
      H1    14.48003   11.08519    7.84629
       H     9.53240   11.21496   -2.31632
       O     9.16479   11.59429   -1.49319
      H1     9.90489   11.69830   -0.84821
       H    14.42125    8.94627    6.29249
       O    15.02376    9.70411    6.36171
      H1    15.81923    9.26348    6.04473
       H    11.19321    6.46504    8.65021
       O    11.69372    5.90376    8.05916
      H1    11.06945    5.27354    7.71622
       H    10.26640   11.44802    7.49811
       O     9.70277   11.24389    6.73680
      H1     9.99138   11.90095    6.02965
       H    16.04815    5.18748    3.13091
       O    16.75159    5.44015    3.68654
      H1    17.24809    4.65461    4.02308
       H     9.98987    7.44562    2.72257
       O    10.41520    6.74546    2.16356
      H1    11.34839    7.03280    2.04274
       H    19.41809   14.15186    4.96525
       O    18.77511   14.05391    4.29681
      H1    18.80947   13.08771    4.15759
       H    12.07746   12.25021    0.93656
       O    11.37355   12.38857    0.29208
      H1    11.75024   13.14989   -0.20173
       H    15.69777    7.34435    0.03665
       O    14.77543    7.29706   -0.27463
      H1    14.66949    6.77032   -1.09949
       H    13.52440   10.07797   -0.94263
       O    14.39490    9.98820   -0.51806
      H1    14.61962    9.04900   -0.61909
       H    17.41355   15.98552    4.05667
       O    16.73372   16.66282    4.12531
      H1    17.13683   17.44622    4.47579
       H    14.12651   13.26297   -0.69340
       O    14.55083   12.75992   -0.03466
      H1    14.28733   11.89177   -0.32381
       H    10.80397   15.68630    1.17224
       O     9.89418   15.43020    1.12612
      H1     9.93184   14.49657    1.43891
       H    14.34222    5.97396    7.93144
       O    15.27432    6.05446    7.69676
      H1    15.67620    6.44839    8.48680
       H    14.83862   10.10906    3.63002
       O    13.85329   10.19430    3.59524
      H1    13.55290   10.25748    4.49701
       H    13.12160   13.52124    3.12955
       O    12.69923   12.69054    2.95177
      H1    13.18717   11.94135    3.32544
       H    13.50611    4.39592   -1.10317
       O    12.86229    5.00054   -0.81946
      H1    13.16884    5.39073    0.02375
       H     9.66908   12.64596    3.29732
       O     9.31761   12.89886    2.41717
      H1     9.86065   12.37836    1.76848
       H    16.96327    6.86353    1.86867
       O    17.36827    7.37285    1.13114
      H1    17.89648    6.70214    0.61288

