159
frame 1 | Written by MDAnalysis XYZWriter (release 2.4.3)
       H    16.16039    8.23970   -5.97537
       O    15.56120    8.66690   -6.64840
      H1    14.67112    8.42567   -6.49988
       H    15.11202   14.63878  -15.57576
       O    15.28546   14.62599  -14.60923
      H1    14.93804   13.73238  -14.36883
       H    19.92114    5.76640  -10.90915
       O    19.30871    6.42842  -11.14313
      H1    18.43630    5.93871  -11.19317
       H    16.80882   14.26557   -6.82960
       O    16.33296   14.68148   -6.11521
      H1    15.37322   14.55307   -6.31519
       H    18.08179   16.87544   -7.57676
       O    17.13834   16.88149   -7.63042
      H1    16.84764   16.20824   -6.96721
       H    17.11766   15.60098  -12.11121
       O    16.82973   15.88495  -11.24799
      H1    16.37434   15.15499  -10.82871
       H    13.89711   18.43124   -5.62936
       O    13.96712   18.09999   -6.50309
      H1    13.14818   17.61947   -6.68684
       H    15.46878   10.13184   -3.13051
       O    15.71637   11.09805   -3.26755
      H1    15.06486   11.57283   -2.72105
       H    18.55695   13.92057   -4.03341
       O    18.95268   14.55254   -3.45157
      H1    19.87758   14.19860   -3.33726
       H    13.63171   12.08925  -10.75454
       O    13.98917   12.96733  -10.94345
      H1    13.43891   13.64882  -10.55750
       H    16.05845   12.99862  -11.07247
       O    16.97963   12.71618  -10.91858
      H1    17.09525   12.97860   -9.99160
       H    14.75709    9.42863   -8.50333
       O    14.51661    9.61054   -9.40208
      H1    13.73441    9.07891   -9.59665
       H    14.81815   11.66343   -8.85065
       O    15.08367   12.22937   -8.10474
      H1    14.99473   13.15411   -8.35322
       H    17.73333   17.08440  -14.77676
       O    17.71277   17.62252  -15.61301
      H1    16.71503   17.64020  -15.89580
       H    18.81965   11.30350   -4.27526
       O    18.38513   11.44262   -3.41241
      H1    17.47913   11.48533   -3.59494
       H    12.20529   14.31175   -8.97239
       O    12.57221   14.92593   -9.65036
      H1    11.97058   14.97112  -10.38478
       H    14.93654   18.72789   -2.55613
       O    14.23468   18.67933   -3.20118
      H1    14.30592   17.72354   -3.41046
       H    19.13302   10.45037   -9.31748
       O    19.42102    9.83572   -9.99978
      H1    18.58810    9.42937  -10.31118
       H    10.94088   12.67310   -9.83900
       O    10.15317   13.34583   -9.91352
      H1    10.05912   13.56847  -10.84332
       H    12.03365   10.67610   -9.98034
       O    12.08277   11.46400   -9.35630
      H1    11.46400   11.20129   -8.64325
       H    16.98844   13.59354  -15.16364
       O    17.94522   13.42069  -15.12164
      H1    18.06894   12.76420  -14.40127
       H    11.09370   16.76950   -6.11005
       O    11.49880   16.22779   -6.80464
      H1    11.86531   15.56196   -6.22243
       H    15.67571   17.29435  -11.40827
       O    15.38730   18.25005  -11.40166
      H1    15.21258   18.35956  -10.46765
       H    18.85108   19.81268  -11.24355
       O    19.26210   19.16588  -11.82425
      H1    18.60236   18.47842  -11.98969
       H    19.04427   10.86395   -7.06372
       O    18.29709   10.64816   -7.67593
      H1    17.68042   10.15590   -7.15941
       H    17.70494   10.49913   -1.65789
       O    17.92606    9.79263   -1.06520
      H1    16.99764    9.36112   -0.96647
       H    14.71257   11.73487  -13.92126
       O    14.17050   12.38957  -13.54822
      H1    14.30927   12.39955  -12.61320
       H    15.49736   19.43372   -8.30011
       O    16.40798   19.48368   -8.10194
      H1    16.71394   18.57868   -7.78912
       H    11.60736   10.17935   -6.19426
       O    11.10787   10.56686   -6.95940
      H1    10.43220   11.06564   -6.46156
       H    18.25977   13.12639   -1.08268
       O    17.30445   13.33898   -0.89759
      H1    17.13313   14.19237   -1.27493
       H    13.51795   15.51760  -14.11677
       O    12.96431   16.22112  -13.85515
      H1    12.42035   16.47491  -14.60054
       H    18.25887   12.48366   -8.29617
       O    18.14778   13.44137   -8.39588
      H1    18.66100   13.58079   -9.25831
       H    19.41220    7.51895  -14.18162
       O    19.18048    6.72105  -13.74944
      H1    19.14190    6.86523  -12.77976
       H    13.01827    8.27368  -13.11697
       O    13.28910    9.16892  -13.27946
      H1    14.24768    9.08027  -13.22339
       H    14.29239   15.23744   -9.14297
       O    15.20102   15.04193   -8.96455
      H1    15.66284   15.86245   -8.85592
       H    18.47250   14.91583  -10.88331
       O    19.26652   14.71900  -10.37337
      H1    19.34015   15.49387   -9.79914
       H    17.02134    7.77576   -9.80600
       O    17.05260    8.46767  -10.50889
      H1    16.16336    8.86882  -10.28006
       H    14.87916   11.57615   -4.91958
       O    14.14158   11.69014   -5.53030
      H1    14.56836   11.91812   -6.37337
       H    18.32861    7.65599   -6.38743
       O    17.78098    7.49788   -5.60828
      H1    18.33393    7.97893   -4.97414
       H    13.73229    9.88600   -5.78658
       O    13.09701    9.17221   -5.76609
      H1    12.78993    9.30360   -4.84517
       H    14.39110   16.59621   -5.52440
       O    14.56956   16.27303   -4.66482
      H1    13.80495   15.70837   -4.39536
       H    19.10970   16.01852  -13.52894
       O    18.12033   15.78461  -13.64017
      H1    18.14251   14.99872  -14.22937
       H    13.30796   13.56348   -2.54740
       O    13.64712   12.88936   -1.98698
      H1    13.18090   12.95139   -1.13039
       H    13.66415    9.20685   -3.08091
       O    14.56470    8.86198   -2.95511
      H1    14.55731    8.61363   -2.01311
       H    19.18024   11.09671  -12.48997
       O    18.57611   11.73605  -12.98020
      H1    18.01453   12.07340  -12.24442
       H    16.79043    6.91715  -11.66965
       O    16.76437    5.98284  -11.92430
      H1    16.93969    5.88981  -12.82170
       H    19.26211    8.42906   -8.49356
       O    19.35729    7.60092   -7.96777
      H1    19.22050    6.82668   -8.52990
       H    18.11344    9.50874  -15.38345
       O    18.91267    9.50554  -14.80173
      H1    18.86177   10.42474  -14.44750
       H    17.15563    9.17847  -13.74098
       O    16.19864    9.14358  -13.68056
      H1    15.89038    9.64594  -14.44990
       H    17.44552   17.46119   -2.27069
       O    17.92358   18.22062   -2.72848
      H1    18.85003   18.06583   -2.39846
       H    15.61821    6.96477   -7.55596
       O    15.07162    6.35866   -8.14364
      H1    15.57674    5.53896   -8.20322
       H    16.37471   16.03565   -3.01675
       O    16.77441   15.80343   -2.12888
      H1    17.66182   15.48421   -2.39006
       H    13.22021   13.31348   -5.12006
       O    12.73201   14.13014   -5.03271
      H1    12.12319   13.99593   -4.32030

