159
frame 8 | Written by MDAnalysis XYZWriter (release 2.4.3)
       H    -2.90585    3.43304   -2.59405
       O    -3.44754    3.09257   -3.34851
      H1    -4.33726    3.34898   -3.19042
       H    -5.14955    6.49433   -7.32589
       O    -5.21586    5.64359   -6.82081
      H1    -6.05951    5.69761   -6.44169
       H   -10.96688    7.50795   -5.19831
       O   -10.02307    7.42683   -4.95232
      H1   -10.01572    7.42969   -4.01964
       H    -7.80868    6.82212   -8.06303
       O    -7.89388    6.61900   -7.13002
      H1    -8.60620    6.02950   -6.95478
       H    -0.83198    3.73262    0.06016
       O    -0.46254    3.07236   -0.59599
      H1    -0.44609    2.18698   -0.13468
       H    -6.60832    3.52831   -4.54999
       O    -6.10358    3.26706   -3.74469
      H1    -6.58165    2.43315   -3.43049
       H   -10.69375    4.32686   -4.23483
       O    -9.89989    4.56878   -4.70983
      H1    -9.96057    5.51750   -4.77845
       H    -7.23929    9.49501   -5.68511
       O    -6.64722    8.71384   -5.71813
      H1    -7.10786    8.01999   -6.26140
       H    -4.85698   -0.95506   -5.94477
       O    -5.08137   -0.33298   -5.23387
      H1    -4.42091    0.35895   -5.19847
       H    -0.44565    8.03912   -5.31715
       O    -1.02747    7.80256   -6.06959
      H1    -1.35683    8.72102   -6.24644
       H    -1.87542    7.45598   -0.91525
       O    -2.67102    7.27559   -0.39524
      H1    -3.36602    7.08647   -0.99593
       H    -9.79043    6.14480    4.35709
       O    -9.29827    5.99298    3.50233
      H1    -8.40718    5.69512    3.76075
       H    -7.38510    3.03118   -6.23759
       O    -7.50210    3.89268   -5.89294
      H1    -8.40559    3.94892   -5.50349
       H    -3.56978    7.91323   -4.97675
       O    -4.08586    8.74072   -4.90756
      H1    -4.98821    8.55481   -5.14000
       H    -3.86647    9.79780   -3.59647
       O    -3.84446   10.35711   -2.84446
      H1    -4.63786   10.16358   -2.28283
       H    -8.33065   11.53730   -3.68533
       O    -8.16467   12.45406   -3.89959
      H1    -8.12992   12.45451   -4.86143
       H    -6.48951    4.99556    0.98163
       O    -6.40818    4.46851    0.15738
      H1    -6.85359    3.60874    0.23509
       H    -4.45938    6.37915   -3.10005
       O    -4.74970    6.62258   -2.21723
      H1    -5.37848    5.96581   -1.94966
       H    -2.01498    5.81840    0.18331
       O    -1.75398    4.98676    0.61259
      H1    -1.73928    5.15085    1.58989
       H     0.21185    6.19621   -1.72704
       O     0.25513    5.30736   -2.10661
      H1    -0.05063    4.68583   -1.41067
       H    -8.79900    7.79540    1.50980
       O    -9.45129    8.09304    0.80906
      H1    -9.05391    8.83091    0.46377
       H    -6.71622    3.09812   -8.63749
       O    -5.76641    3.26215   -8.43713
      H1    -5.81851    4.03895   -7.87123
       H    -3.85964    1.72668    0.88998
       O    -4.16219    1.16098    1.50726
      H1    -4.91175    0.77898    1.04796
       H    -3.66989    9.50784    1.00378
       O    -3.45570    9.56194    1.87141
      H1    -4.19679    9.93157    2.33462
       H    -0.81147   10.94396   -1.88161
       O    -1.17963   10.83642   -2.79048
      H1    -2.17246   10.64886   -2.70116
       H    -2.29598   -0.37716   -4.52192
       O    -2.48507    0.51866   -4.83226
      H1    -2.26576    1.21341   -4.22162
       H    -6.71153    8.65269    3.34331
       O    -7.15705    8.99256    2.54608
      H1    -6.86915    9.87564    2.45403
       H    -2.34147    0.59491   -1.98050
       O    -1.38968    0.26549   -2.09603
      H1    -1.13662    0.83560   -2.85692
       H    -4.82200   11.95892   -2.99082
       O    -5.07651   12.87590   -3.09790
      H1    -6.03916   12.90525   -3.21166
       H    -1.89264    3.73271    4.12876
       O    -2.24771    4.38048    3.58798
      H1    -3.11852    4.49054    4.03058
       H    -3.94228    5.51168   -5.41418
       O    -3.40759    5.79167   -4.70176
      H1    -2.80557    5.05809   -4.57865
       H    -8.92766    1.06548   -2.96502
       O    -7.97966    1.09874   -2.95258
      H1    -7.74418    0.20177   -2.74445
       H    -6.10426    9.47675   -0.84644
       O    -5.31584    9.97058   -0.57339
      H1    -5.72651   10.67435   -0.04024
       H    -3.79318   10.57476   -7.54281
       O    -3.26780    9.76743   -7.47177
      H1    -3.46831    9.45418   -6.55760
       H     0.17572    2.28413   -2.73301
       O    -0.39024    2.31286   -3.51728
      H1     0.05998    2.05468   -4.29457
       H   -10.69862    3.64112    0.87127
       O   -10.82836    3.31870   -0.05390
      H1   -11.77903    3.37320   -0.24077
       H    -0.10429    8.78431   -0.48500
       O    -0.08912    7.93191   -0.95421
      H1    -0.34238    8.16184   -1.86214
       H    -6.99084    4.88668   -1.17894
       O    -7.42991    5.16914   -2.05272
      H1    -7.04280    4.61700   -2.74223
       H    -4.85620    7.71455   -9.06304
       O    -5.20812    7.92207   -8.18617
      H1    -4.45247    8.55219   -7.87837
       H    -9.98186   10.26300   -6.22428
       O    -9.18713    9.86502   -5.79336
      H1    -9.33644    8.95173   -5.64963
       H    -4.51142    3.97786   -0.01262
       O    -3.72306    3.61340   -0.46199
      H1    -2.95173    4.03932   -0.03409
       H    -4.95004    4.64524    3.67346
       O    -4.78878    4.13453    4.51030
      H1    -4.65048    3.20131    4.25223
       H    -3.37796    4.77117   -7.45645
       O    -2.80183    4.05783   -7.73331
      H1    -2.66101    4.24133   -8.67636
       H    -7.37526    7.06330   -1.50477
       O    -7.08235    7.92077   -1.22676
      H1    -6.17158    7.97694   -1.51751
       H    -9.86631   10.11087   -2.64011
       O   -10.54637   10.72804   -2.28059
      H1   -11.13158   10.08145   -1.84229
       H    -4.85331    7.03891    2.69633
       O    -5.36687    6.24874    2.59292
      H1    -5.95638    6.50090    3.31603
       H   -11.80006    5.94634    0.37767
       O   -11.41908    6.59964   -0.19674
      H1   -10.70230    7.08032    0.31974
       H    -9.45310    5.89110   -2.47170
       O    -9.76394    6.77276   -2.39121
      H1   -10.34927    6.71101   -1.68092
       H    -0.77018    3.80990   -4.32879
       O    -0.83552    4.65876   -4.74684
      H1    -0.62079    5.22814   -3.97796
       H     1.12324    8.79259   -3.52520
       O     0.21380    8.56118   -3.65489
      H1    -0.24976    9.43774   -3.52848
       H    -7.76737    8.90387   -2.73537
       O    -8.17942    9.69481   -3.09055
      H1    -8.28210    9.58723   -4.07349
       H    -3.63266    0.27581   -3.03474
       O    -4.12587    0.67550   -2.28336
      H1    -4.08837    1.63266   -2.53694
       H    -8.94102    2.58145   -0.13575
       O    -8.10295    2.12666   -0.25040
      H1    -7.92512    1.88306   -1.18120

