159
frame 11 | Written by MDAnalysis XYZWriter (release 2.4.3)
       H    -3.06439   11.23300    9.49752
       O    -2.21042   11.19349    9.00170
      H1    -1.91448   12.08982    8.81224
       H    -2.86640    4.46842   11.37567
       O    -3.44940    3.68350   11.29839
      H1    -4.16864    3.84532   11.92134
       H    -4.10555    3.89722    1.47813
       O    -4.03333    4.42396    0.63560
      H1    -3.37896    3.96126    0.13688
       H     1.64514    3.26295    4.58680
       O     1.27313    3.81243    5.29762
      H1     2.00968    4.15040    5.80546
       H    -9.07617    8.54763    7.08778
       O    -8.38700    7.83129    7.26105
      H1    -8.80814    7.26863    7.98107
       H     1.90730    3.50870   10.07441
       O     2.43263    3.93043   10.74382
      H1     2.30853    3.39041   11.50325
       H    -0.72322    6.47788    6.33268
       O     0.21212    6.46398    6.59229
      H1     0.55132    5.63438    6.25933
       H     2.61480    5.78001    7.66321
       O     2.84109    4.99962    7.12555
      H1     3.71767    4.68047    7.25627
       H    -0.82725    3.76976    9.67021
       O    -1.37334    3.59056    8.85944
      H1    -2.12823    3.10819    9.32062
       H    -5.81025    7.13255    1.99895
       O    -5.15612    6.58639    2.47508
      H1    -4.35034    7.04397    2.63422
       H    -1.87320    3.09232    5.92880
       O    -2.54925    3.13969    5.27613
      H1    -2.27239    2.83200    4.42317
       H     0.47367    6.88747    0.93937
       O     1.34081    6.46548    0.96296
      H1     1.84575    7.21532    1.28899
       H    -1.25473    6.32254    2.44059
       O    -1.55418    6.16274    1.53420
      H1    -2.28802    5.57157    1.46513
       H     0.82613    8.46368    6.49541
       O     1.53019    8.95675    7.01214
      H1     1.33016    9.89413    6.81296
       H    -2.20808    6.51409   10.77962
       O    -2.15745    5.94748   11.61215
      H1    -2.83413    6.34725   12.24691
       H    -4.58104    5.83569    9.23500
       O    -4.79136    6.51617    9.91863
      H1    -5.49842    7.07824    9.57049
       H    -5.38285    2.07989    2.44773
       O    -4.59317    2.68235    2.54554
      H1    -3.83310    2.08185    2.62549
       H    -5.17615    9.92978    4.79394
       O    -5.84578    9.53026    4.30166
      H1    -6.29539   10.21642    3.94467
       H     0.48789    9.27731   10.29232
       O     0.02967   10.11877   10.29778
      H1    -0.62620   10.05700    9.65267
       H    -7.21257    0.39832    5.78655
       O    -6.48127    0.75738    5.28267
      H1    -6.17020    1.56748    5.67584
       H    -7.98810    3.53728    8.97718
       O    -8.04147    3.75080    8.04048
      H1    -7.15707    3.85158    7.61655
       H    -2.61665    5.10314    5.72670
       O    -2.40680    6.00080    5.80487
      H1    -2.88447    6.27362    6.58856
       H    -4.05388    7.83085   10.77119
       O    -3.93387    8.76873   11.10298
      H1    -3.10900    8.75791   11.62427
       H    -1.30490    5.66022    8.96257
       O    -1.57481    6.55914    8.92375
      H1    -0.79468    6.99530    8.59221
       H    -6.80267    7.66307    4.53067
       O    -7.45883    6.98715    4.67852
      H1    -7.86350    7.14501    5.60850
       H    -5.10642    4.16095    7.22561
       O    -5.31420    4.95694    7.70473
      H1    -5.38417    5.63980    7.02691
       H    -3.18954    7.71901    4.29032
       O    -3.11990    8.15855    3.43909
      H1    -4.05099    8.42740    3.39123
       H    -6.27558    6.08473   10.92881
       O    -6.98448    5.77396   11.49755
      H1    -6.82861    6.20935   12.34530
       H    -2.87048   10.95595    4.87617
       O    -2.58684   11.35619    4.03926
      H1    -3.03968   10.78730    3.36095
       H     1.48902    7.39027   10.26812
       O     1.16468    7.79586   11.04533
      H1     0.71985    7.14941   11.61098
       H    -5.48210    8.29551    8.01587
       O    -6.23338    8.35955    8.63692
      H1    -7.07292    8.10933    8.23191
       H    -2.62875    0.84526    7.40183
       O    -2.10825    0.01488    7.35862
      H1    -2.23718   -0.38861    8.24068
       H    -2.11007    9.32674    1.91897
       O    -2.43347    9.90697    1.18533
      H1    -1.78217   10.63964    1.01400
       H    -1.17044    7.83535    0.28457
       O    -0.56019    7.95719   -0.46860
      H1    -1.14714    8.32170   -1.18583
       H    -0.48647    6.18478   12.73904
       O     0.26610    6.28788   13.30450
      H1    -0.05310    6.82646   14.12498
       H    -0.49115    2.70133    7.52275
       O    -0.39705    2.28161    6.65436
      H1     0.36323    2.70567    6.23865
       H   -10.26643    6.16930    9.17500
       O    -9.36830    6.44927    9.37697
      H1    -8.86916    5.65261    9.41417
       H     0.99250    2.02441    8.00187
       O     1.59720    1.96525    8.75607
      H1     2.41595    1.87710    8.30621
       H    -2.43293   10.52416    7.48500
       O    -2.94566   10.34842    6.67505
      H1    -3.77179   10.98429    6.70798
       H     2.93188    7.20981    9.02569
       O     2.08508    6.96911    8.63664
      H1     1.81860    7.67457    8.03123
       H    -0.26790    8.97981    4.04180
       O    -0.20379    9.90435    4.30581
      H1    -1.10797   10.29485    4.27157
       H    -1.55698    1.02917    2.25887
       O    -2.16516    1.44109    2.89111
      H1    -2.08275    1.03802    3.74156
       H     0.68762    6.61109    3.29923
       O    -0.06322    7.07842    3.65518
      H1    -0.22284    6.73671    4.52946
       H    -5.30448   11.26185    9.39758
       O    -4.56055   11.34331   10.01730
      H1    -4.42779   10.37491   10.25891
       H    -0.12748    0.70838    5.76532
       O     0.39277    0.26502    5.13617
      H1     0.96608    0.84908    4.64721
       H    -5.34352    3.70744    4.66591
       O    -5.28404    3.18587    5.51192
      H1    -4.35792    2.96084    5.40535
       H    -6.59532    9.94635    8.31295
       O    -6.77029   10.91774    8.25708
      H1    -7.72075   11.11098    8.19977
       H    -6.51197    4.53710    2.83994
       O    -7.12395    4.50532    3.58274
      H1    -7.29051    5.39243    3.88412
       H    -1.83433    2.75361   11.53150
       O    -0.88079    2.67961   11.33070
      H1    -0.79134    1.83451   10.88844
       H     3.25700    7.86086    5.72504
       O     3.81110    7.77051    4.91079
      H1     4.38708    6.99842    5.03243
       H    -4.08203    2.62407   10.02066
       O    -4.10048    2.31288    9.11115
      H1    -4.71013    1.51159    9.11365
       H    -3.30094    7.37361    8.13219
       O    -3.80123    7.71609    7.33885
      H1    -3.37750    8.55387    7.15605
       H    -5.17070   12.77806    6.63167
       O    -5.19997   11.90474    6.34984
      H1    -5.80747   11.49677    7.03612

