159
frame 4 | Written by MDAnalysis XYZWriter (release 2.4.3)
       H     9.20507    4.76990   -8.85001
       O     9.97043    5.23669   -8.61650
      H1     9.79160    5.42658   -7.69162
       H     7.87670    9.26026  -12.55114
       O     8.20807   10.10641  -12.44731
      H1     8.49536   10.06651  -11.50722
       H    16.46722    9.18091   -6.84237
       O    15.95997    9.92076   -7.18871
      H1    15.12817   10.06313   -6.76317
       H    12.96757    9.79220  -15.55962
       O    12.67641   10.76530  -15.60874
      H1    13.52643   11.17917  -15.48470
       H    19.40075    5.04112  -10.23581
       O    19.87452    5.81268   -9.94620
      H1    19.23761    6.49185  -10.29393
       H    16.07613   14.99660  -13.05535
       O    16.85153   15.39405  -12.56567
      H1    16.80377   14.85775  -11.78208
       H    12.31234    5.62583   -6.57185
       O    11.96141    5.06650   -5.86149
      H1    12.35931    5.51660   -5.08709
       H    14.11517   11.82008  -11.64800
       O    14.76207   12.41236  -12.04744
      H1    14.46969   13.29273  -11.74625
       H    16.66777   12.14488  -11.49660
       O    17.55816   11.99492  -11.82511
      H1    18.11483   12.15381  -11.03583
       H    15.84938    9.65559   -8.92576
       O    15.56804    9.74043   -9.82875
      H1    15.25441   10.63737   -9.82375
       H    15.45613   13.20774   -9.07307
       O    15.13501   12.40324   -8.67798
      H1    15.87008   12.05288   -8.16266
       H    13.87371    7.45126  -15.47914
       O    13.79602    8.37341  -15.76914
      H1    13.38827    8.31032  -16.67382
       H    13.19453    4.75798  -13.05247
       O    13.45236    4.32302  -12.24944
      H1    12.91176    4.88557  -11.68987
       H    15.95200    6.58765   -5.91660
       O    15.33568    5.95115   -5.48509
      H1    15.92489    5.73609   -4.73751
       H    11.40028   12.54797  -11.52699
       O    10.77150   13.12195  -11.96396
      H1    10.54577   12.57534  -12.74546
       H    12.23671   10.63797  -11.24138
       O    12.69918   11.38255  -10.91302
      H1    12.60863   11.25731   -9.94881
       H    17.98571   13.23318  -14.93893
       O    18.55116   13.41404  -14.17192
      H1    18.27064   12.81237  -13.45363
       H    18.68096    7.24334  -16.46477
       O    19.68540    7.35648  -16.72731
      H1    19.94619    6.53041  -17.17803
       H    11.84737    5.75647  -14.46003
       O    12.81371    5.62693  -14.53442
      H1    12.85145    5.24381  -15.41771
       H    12.83310    8.38387  -12.49617
       O    11.94496    8.72797  -12.23115
      H1    11.65142    8.04819  -11.53899
       H     9.71363    4.39133  -14.31849
       O     9.80750    4.83801  -13.49341
      H1     9.57677    5.72546  -13.65974
       H    18.98338   11.89046   -7.15600
       O    18.69044   11.18335   -7.80824
      H1    17.92819   10.79391   -7.31930
       H    15.52433    9.68478  -15.99850
       O    16.25422   10.32142  -15.97543
      H1    16.66786   10.38542  -16.86256
       H     9.96383    8.52494   -9.39436
       O     9.56754    8.31712  -10.25768
      H1     9.53908    7.33958  -10.31127
       H    15.47550   11.79871  -15.11092
       O    14.96739   12.56190  -14.88246
      H1    14.74438   12.46141  -14.00574
       H    12.72806   11.57123   -8.18375
       O    11.88748   11.09886   -8.23146
      H1    11.25921   11.85036   -8.33895
       H    19.12566   12.56517   -9.14938
       O    19.39410   12.38161  -10.07279
      H1    19.85154   13.21011  -10.37836
       H    15.13891    4.55544  -17.64905
       O    14.99242    5.56143  -17.54594
      H1    15.30674    5.97588  -18.34781
       H    18.21722    2.99728  -11.03576
       O    17.92051    3.64330  -10.41057
      H1    17.16384    4.10445  -10.75968
       H    10.31334    2.84542  -11.01179
       O    10.73239    2.97068  -11.88894
      H1    10.25110    3.67463  -12.32468
       H    17.52125    5.89837  -12.75098
       O    18.20642    6.52075  -12.92359
      H1    18.99244    5.99564  -13.16425
       H    10.06187    8.28109   -6.28473
       O     9.52013    8.28999   -7.08432
      H1     9.05219    7.43640   -7.16366
       H    15.28153    8.41242  -11.09286
       O    15.02484    7.92169  -11.90767
      H1    15.69887    8.23620  -12.53602
       H    11.18788   10.85262  -14.49576
       O    10.33021   11.20043  -14.04472
      H1    10.00782   10.50466  -13.45283
       H    15.03535   15.36180   -9.93828
       O    15.87946   14.82073   -9.85498
      H1    16.45831   15.30886   -9.23283
       H    18.03593    4.96340  -15.72567
       O    18.43146    4.09949  -15.49995
      H1    17.76138    3.38545  -15.61330
       H    11.15896    5.59725   -9.94563
       O    11.85246    5.80519  -10.61013
      H1    12.53077    6.16259  -10.01256
       H     9.62699    7.96598  -15.04133
       O     9.66880    7.59666  -14.13278
      H1    10.56837    7.79600  -13.81440
       H    16.43623    3.33099  -13.96356
       O    15.74344    3.07070  -14.58169
      H1    14.94964    3.57906  -14.60010
       H    17.77596    9.00660  -10.49050
       O    18.40933    8.31421  -10.58326
      H1    18.32137    7.89011  -11.48772
       H    14.69539   13.06505   -5.49405
       O    14.47285   13.63872   -6.24029
      H1    14.84857   13.22138   -7.02657
       H    17.78778    7.66377   -7.00545
       O    17.46554    7.76427   -6.09624
      H1    18.18151    8.11571   -5.52745
       H    12.68334   10.31414   -6.46393
       O    13.47745   10.41735   -5.96014
      H1    13.50883    9.56631   -5.42427
       H    16.24711    6.40807  -16.72554
       O    17.02759    6.82459  -16.28099
      H1    16.70336    7.30635  -15.53728
       H    13.86252    3.03671   -8.66612
       O    14.63234    3.22211   -8.18108
      H1    15.13104    2.35951   -8.20074
       H    16.06659    4.14395   -7.88412
       O    17.03600    4.40238   -7.78923
      H1    17.44247    4.07493   -8.61876
       H    12.21176   14.20722  -12.10830
       O    13.01177   14.79816  -12.08388
      H1    12.92512   15.55628  -12.71661
       H    15.72886    6.17818  -12.03848
       O    16.02344    5.26948  -11.96373
      H1    15.22274    4.77585  -12.05511
       H    14.82155    7.42646   -4.43715
       O    14.12821    8.14062   -4.36125
      H1    14.36759    8.61169   -3.59779
       H    12.33234    3.34136  -10.11609
       O    12.09243    2.81087   -9.35221
      H1    12.05248    1.87480   -9.67570
       H    13.57987    7.85873   -8.67590
       O    13.71819    6.85701   -8.65593
      H1    14.67999    6.73494   -8.67671
       H    17.75624    7.92443  -14.03998
       O    16.97337    8.52149  -13.97438
      H1    17.05626    9.29733  -14.60686
       H    17.33406    7.11807   -9.31913
       O    16.80392    7.04401   -8.55035
      H1    16.91213    6.13553   -8.26772

