159
frame 9 | Written by MDAnalysis XYZWriter (release 2.4.3)
       H   -13.13031  -13.07554  -18.39625
       O   -13.98674  -13.06044  -18.90902
      H1   -14.39370  -12.22515  -18.54906
       H   -17.61963  -13.81170   -9.21841
       O   -17.15702  -14.13959  -10.01812
      H1   -16.54443  -14.82927   -9.81921
       H   -11.48319  -14.58533  -17.61248
       O   -11.97972  -13.83476  -17.25333
      H1   -11.30578  -13.24730  -16.95231
       H    -7.71316  -16.21224  -15.06945
       O    -8.52404  -16.07734  -14.50301
      H1    -8.43330  -16.46186  -13.61222
       H   -10.96557  -16.52263  -12.24876
       O   -11.04756  -16.25253  -11.29751
      H1   -10.16209  -16.53844  -10.96476
       H   -17.42579   -8.58612  -14.32990
       O   -18.11367   -7.92779  -14.21593
      H1   -18.05428   -7.57820  -13.29400
       H   -11.49040   -9.82338  -13.40959
       O   -11.86040  -10.29239  -14.19408
      H1   -11.09670  -10.64448  -14.72879
       H   -13.87506  -17.68267  -17.52785
       O   -14.44949  -18.31140  -17.97401
      H1   -14.21018  -18.19548  -18.94667
       H    -9.94748  -13.36554  -12.20635
       O   -10.36182  -13.58566  -11.38883
      H1   -10.53454  -14.52637  -11.45233
       H   -15.68361   -9.88673  -14.66756
       O   -15.31659   -9.34067  -13.96006
      H1   -15.12751   -9.89367  -13.18152
       H    -9.17346  -14.32335  -14.26272
       O    -9.34499  -13.40673  -14.04350
      H1    -8.64813  -13.19439  -13.40394
       H   -10.20487  -12.11601   -9.85729
       O    -9.52666  -11.89957   -9.19009
      H1    -9.24587  -12.75978   -8.91441
       H   -13.26323  -15.82874  -15.13281
       O   -12.84927  -14.96577  -14.91950
      H1   -12.50503  -14.66670  -15.75093
       H   -17.86518  -13.38123  -17.39843
       O   -17.56274  -14.19123  -16.93732
      H1   -16.76761  -13.88452  -16.39734
       H   -14.42130  -10.36261  -17.20241
       O   -15.15675  -10.87048  -17.58981
      H1   -15.82289  -10.81658  -16.94736
       H   -18.54521   -6.99318  -15.55740
       O   -18.89717   -6.46877  -16.27814
      H1   -19.60545   -6.96267  -16.71137
       H   -10.32075   -9.71290  -18.78210
       O    -9.74504   -8.93852  -18.61635
      H1    -8.77234   -9.29610  -18.57047
       H   -10.06156  -12.36957  -15.30250
       O   -10.38659  -11.80686  -16.01423
      H1    -9.54170  -11.60486  -16.39754
       H   -18.47475  -10.14280  -18.60596
       O   -18.70161   -9.22931  -18.95417
      H1   -18.08640   -8.62707  -18.50908
       H   -15.19117  -13.93875  -12.10080
       O   -15.82360  -13.85424  -12.87093
      H1   -15.27872  -13.55074  -13.63708
       H   -14.89224  -12.62743  -15.94771
       O   -15.22039  -13.54190  -15.82161
      H1   -14.51895  -14.14518  -15.53872
       H   -11.84341   -8.10806  -16.58178
       O   -11.30704   -7.43663  -16.92941
      H1   -10.53387   -7.87979  -17.39889
       H   -12.38681  -10.80245  -19.54468
       O   -11.67977  -11.00331  -18.94942
      H1   -11.32755  -11.86986  -19.23247
       H   -18.35467  -12.03453  -19.08008
       O   -18.40366  -11.92121  -18.14115
      H1   -19.32636  -11.62693  -18.10843
       H   -14.33140  -11.41074  -12.40837
       O   -14.90087  -11.21688  -11.71301
      H1   -15.42112  -12.06091  -11.57409
       H    -9.13782  -10.03956  -12.55341
       O    -9.92698   -9.46870  -12.35431
      H1    -9.48982   -8.60593  -12.18578
       H   -15.10631  -14.35649  -18.79712
       O   -15.75072  -15.06469  -18.84841
      H1   -16.38346  -14.93489  -18.17827
       H   -15.45234  -19.18943  -11.04695
       O   -15.91562  -20.05861  -10.88992
      H1   -16.70886  -19.80645  -11.37673
       H   -14.18354   -5.64881  -17.70248
       O   -14.19800   -6.56284  -17.52585
      H1   -13.26938   -6.77504  -17.81450
       H   -17.39542  -16.85970  -16.90709
       O   -17.28652  -17.45655  -17.69771
      H1   -16.32729  -17.64799  -17.63757
       H   -12.47589  -11.85822  -13.77095
       O   -12.94864  -12.63541  -13.37032
      H1   -12.87455  -13.36987  -14.00784
       H   -10.40091   -7.36552  -15.24664
       O    -9.55755   -7.39108  -14.74538
      H1    -9.07736   -6.70293  -15.22016
       H   -18.10018  -16.98008  -13.97981
       O   -17.66353  -16.14868  -14.23021
      H1   -17.64189  -15.60718  -13.50691
       H   -14.98853   -8.03345   -9.74999
       O   -15.88103   -8.06871  -10.15738
      H1   -16.16746   -8.97441  -10.39421
       H   -19.17744  -13.57549  -13.17676
       O   -18.49416  -12.93404  -13.37452
      H1   -17.71231  -13.23710  -12.82898
       H   -11.07250  -17.75916  -17.76591
       O   -11.24918  -16.82605  -17.62583
      H1   -10.33681  -16.51376  -17.67443
       H   -13.89365  -17.86690  -11.21576
       O   -14.82987  -17.73480  -11.46437
      H1   -14.79615  -17.53578  -12.42662
       H   -19.89389  -15.79500  -10.77580
       O   -18.99233  -16.10748  -10.92560
      H1   -18.43040  -15.35077  -10.71680
       H    -8.34619  -15.72398  -18.54129
       O    -8.87577  -15.57724  -17.76104
      H1    -8.23634  -15.51746  -17.01121
       H   -15.70673   -7.15002  -18.21797
       O   -16.43678   -7.06492  -18.93993
      H1   -16.35423   -6.17856  -19.19362
       H   -12.72835  -14.07455   -8.52908
       O   -12.73638  -14.96811   -8.31864
      H1   -11.85768  -15.14545   -8.03700
       H   -16.97897  -11.89748  -14.64256
       O   -17.05919  -11.21432  -15.30233
      H1   -17.98776  -11.26485  -15.45488
       H   -11.86699  -16.18867  -14.01413
       O   -11.27846  -16.94535  -13.95679
      H1   -10.51510  -16.82204  -14.50159
       H   -11.22628   -9.40064  -10.55559
       O   -11.85975   -9.47923   -9.84719
      H1   -12.00880  -10.40016   -9.69454
       H   -13.53688  -12.76786   -9.77191
       O   -13.14935  -12.25630   -9.02994
      H1   -13.83487  -11.73856   -8.66600
       H   -11.87780  -17.62433  -10.96461
       O   -12.40479  -18.39048  -10.66740
      H1   -11.89964  -19.11764  -11.03333
       H   -18.64306  -19.29345  -14.28139
       O   -19.20382  -18.60769  -13.90426
      H1   -19.11548  -18.75348  -12.94796
       H   -19.42046  -12.33292  -10.61678
       O   -19.53655  -11.67742  -11.29743
      H1   -18.99221  -11.95882  -12.07964
       H   -15.05353  -17.67189  -14.55762
       O   -14.85507  -16.81850  -14.15174
      H1   -15.73829  -16.39848  -14.13785
       H   -15.60685  -16.64265   -8.42387
       O   -16.09244  -16.68672   -9.21041
      H1   -15.59355  -17.18279   -9.87984
       H   -12.98046  -13.89670  -11.81905
       O   -13.49316  -14.52679  -11.18844
      H1   -12.86119  -14.93189  -10.56676
       H   -12.13968  -10.46951  -17.15729
       O   -12.78641  -10.08316  -16.63129
      H1   -12.46650  -10.04973  -15.74324
       H   -15.21579   -7.32778  -13.15846
       O   -15.66195   -6.83255  -12.44577
      H1   -15.56126   -7.33703  -11.60188

