159
frame 9 | Written by MDAnalysis XYZWriter (release 2.4.3)
       H     4.69938   12.07787   18.79711
       O     4.31364   12.46713   17.97781
      H1     5.08861   12.60767   17.42724
       H     6.86616    9.74833   10.69552
       O     7.08604    8.78844   10.51427
      H1     6.91875    8.70120    9.55588
       H     3.87120   10.72498   17.45555
       O     3.88969    9.76043   17.33690
      H1     4.70830    9.39456   16.99113
       H     5.74275   12.69281   14.86537
       O     6.16398   12.05232   15.48672
      H1     5.85152   11.16572   15.15421
       H     9.40115    9.32911   19.29866
       O     9.25235    8.64562   18.62392
      H1     8.76374    7.89571   19.05626
       H     2.20976   15.97693   15.86666
       O     1.79391   15.64274   16.66058
      H1     2.45614   15.41279   17.26449
       H     6.95633   18.89431   15.54079
       O     6.58290   19.52167   14.92349
      H1     5.65181   19.72784   15.13354
       H     5.72552    6.08741   17.73506
       O     4.82129    6.49430   17.54487
      H1     4.63357    6.16428   16.67515
       H     3.89195   14.52426   14.46018
       O     4.41494   13.75413   14.18840
      H1     4.24380   13.74276   13.25678
       H    12.52400   12.84418   18.01589
       O    12.99729   13.37897   18.71435
      H1    13.58888   12.66888   19.12411
       H     7.65152   11.52255   18.23222
       O     7.45916   10.59478   18.32657
      H1     8.22563   10.06110   18.51426
       H     3.57252    5.99982   18.63444
       O     2.79209    5.63766   19.12785
      H1     2.19708    6.43515   19.17867
       H     3.17055    6.02387   13.91763
       O     3.77859    6.80334   13.89637
      H1     3.39304    7.49128   14.44608
       H     4.84117   17.21988   11.98354
       O     4.37833   17.84564   11.36034
      H1     3.90588   17.25088   10.79005
       H    -0.62948   10.46324   18.59552
       O    -0.61925   11.42917   18.55808
      H1    -0.69626   11.57499   17.59220
       H     6.85520   16.80309   12.81085
       O     6.04123   16.28372   12.76532
      H1     6.16812   15.77290   11.94903
       H     9.30001    6.79243   15.89394
       O    10.25190    6.80246   15.68561
      H1    10.20905    6.23993   14.89281
       H     6.65147   14.72641   14.64778
       O     7.47287   15.11257   15.04359
      H1     8.04355   14.33595   15.10072
       H     0.27141   15.22808   19.48795
       O    -0.09950   15.74317   18.77092
      H1     0.57479   15.98635   18.11683
       H     2.13158    8.50519   19.42750
       O     1.85121    8.17014   18.58566
      H1     2.44128    8.66466   17.98751
       H     3.94629   14.30496   18.71117
       O     3.71015   15.26345   18.69625
      H1     3.73931   15.50583   19.66061
       H    11.30254   13.73566   16.21418
       O    11.44483   12.82291   16.47530
      H1    12.03306   12.53502   15.76931
       H     7.08141    7.35699   16.06537
       O     7.55607    6.60994   15.72786
      H1     6.94019    5.96270   15.34373
       H     0.01345    8.38725   18.79150
       O    -0.86191    8.78616   18.95080
      H1    -1.08988    8.78509   19.91763
       H     5.34236    6.93000   12.99559
       O     6.06676    6.73847   12.37175
      H1     6.76572    7.41490   12.46461
       H     9.66446   12.58272   15.36075
       O     8.84243   12.71004   14.96231
      H1     8.14665   12.07983   15.27931
       H     2.34900    9.83514   14.56664
       O     2.17400    9.18599   15.25602
      H1     2.77947    9.47366   15.98278
       H     4.95809   13.71398   10.80158
       O     4.54076   13.11330   11.40263
      H1     3.96096   12.57823   10.84815
       H    -0.43698   14.44255   17.14332
       O    -0.98114   14.12853   16.48101
      H1    -1.73904   14.74339   16.56292
       H     0.50286   18.82821   13.42887
       O     0.15589   18.59534   14.31038
      H1     0.18593   17.61629   14.34464
       H    -0.40404   15.12782   14.97065
       O    -0.58135   15.84145   14.29449
      H1    -0.72582   15.28077   13.48937
       H     0.45627   15.45072   11.72982
       O     1.34208   15.19972   11.98095
      H1     1.27439   14.28938   12.32266
       H     1.27931   18.63144   15.75777
       O     2.17371   18.57430   16.13890
      H1     2.13642   17.71430   16.62853
       H     9.31261   13.58528   18.53305
       O     8.83557   12.90630   18.01278
      H1     9.45376   12.71062   17.26768
       H     5.85489   11.95967   11.44015
       O     6.48340   11.28688   11.58920
      H1     7.27682   11.78246   11.76961
       H     0.91743    6.52022   15.87582
       O     0.45423    6.98020   15.16495
      H1     0.91653    7.79863   15.05460
       H     1.51920   12.38405   13.48285
       O     0.69063   12.89125   13.26730
      H1     0.22979   12.38358   12.60275
       H     9.25983   12.63378   13.07654
       O     9.28587   12.27569   12.17475
      H1     9.84474   11.54638   12.09677
       H    -3.48963   11.30245   15.12893
       O    -2.95609   10.47323   15.19130
      H1    -2.06599   10.73489   15.50311
       H     6.22894   16.41858   19.44961
       O     6.02665   16.64920   18.52544
      H1     5.36250   15.94269   18.37963
       H     7.68705   16.54322   15.92091
       O     7.86500   17.34306   16.44731
      H1     7.40078   17.16731   17.29301
       H     4.91677   18.38128   18.71365
       O     4.80395   19.31351   18.84770
      H1     4.29652   19.49088   19.64619
       H     3.56407    8.65747   11.80676
       O     4.11603    9.41078   11.98872
      H1     4.99372    9.06551   12.35337
       H    10.22577   16.29825   18.24190
       O    10.23304   17.24725   18.12367
      H1     9.46052   17.58923   17.59143
       H     0.74077   19.56190   19.11918
       O     0.63694   19.54892   18.15528
      H1     1.28265   18.87110   17.84337
       H     0.35451   10.72570   15.55190
       O    -0.42174   11.24773   15.77826
      H1    -0.31767   12.12523   15.44819
       H     5.64052    8.10959   17.50084
       O     6.16971    8.68217   16.92729
      H1     6.69950    9.26450   17.55484
       H     7.51175    9.92957   14.40177
       O     6.69771    9.66250   13.95143
      H1     6.67943   10.30264   13.20224
       H     3.70944   10.97134   13.10942
       O     3.11889   11.39245   13.78025
      H1     3.68397   12.08667   14.21479
       H     2.81830   17.26111   13.91277
       O     2.65216   16.32160   14.12810
      H1     2.15117   15.91356   13.35303
       H     1.94031   11.41197   10.08726
       O     2.88426   11.38915   10.24072
      H1     3.02346   10.41849   10.38186
       H     9.98270   15.95973   15.53905
       O    10.75869   15.46650   15.70444
      H1    11.46870   16.11724   15.43859
       H     9.96636    8.81270   15.37872
       O     9.59814    9.60900   15.83953
      H1     9.56926    9.37694   16.76338

