159
frame 7 | Written by MDAnalysis XYZWriter (release 2.4.3)
       H    13.96786  -12.73873    3.53463
       O    13.20309  -12.53783    3.01898
      H1    12.49360  -13.18433    3.09739
       H     8.17241  -12.00278    8.26086
       O     8.63674  -12.85203    8.06516
      H1     8.09505  -13.45382    8.57447
       H    12.21173  -16.68727   12.25000
       O    12.50622  -16.24879   11.44038
      H1    11.83515  -16.54922   10.76688
       H    10.75370  -14.10673    1.54566
       O    11.12743  -14.27877    2.43270
      H1    11.20630  -15.26224    2.42621
       H    13.90580  -12.35625    1.41225
       O    14.26502  -12.19069    0.52416
      H1    15.12644  -12.69525    0.44344
       H     7.44982  -13.58133    6.10267
       O     7.30888  -14.18743    5.38992
      H1     7.48606  -13.80707    4.52263
       H     8.17594  -16.58619   -0.27456
       O     8.23482  -15.79580    0.27262
      H1     8.19603  -16.19584    1.18192
       H     1.95929  -14.29741    1.21993
       O     2.14469  -14.33470    2.12181
      H1     2.99225  -14.81114    2.11918
       H    10.24634  -18.89306   -0.03807
       O    10.87560  -19.28458    0.61232
      H1    10.99984  -18.52517    1.23649
       H    15.01350  -12.74934    5.73935
       O    15.35677  -12.82410    4.88116
      H1    16.28311  -12.45977    4.86128
       H     8.88917  -18.02480   -1.79231
       O     8.05294  -18.15773   -1.35238
      H1     7.36259  -18.03555   -1.96936
       H     4.59810  -18.50585    5.22551
       O     4.80818  -19.23964    4.63560
      H1     4.34361  -19.06925    3.77888
       H     8.72908  -12.91552    2.59969
       O     7.97781  -13.50878    2.78983
      H1     7.20398  -13.21172    2.33992
       H    12.55900  -11.11184    4.47674
       O    11.68200  -10.73983    4.63441
      H1    11.72713   -9.96860    5.24085
       H     9.40601  -18.92684   10.33411
       O     9.11050  -19.82129   10.37865
      H1     9.32189  -20.19103   11.25266
       H    14.74431  -17.98944   -1.55818
       O    15.07041  -17.05750   -1.47498
      H1    15.48559  -17.05209   -0.59739
       H    13.17379  -13.01970   -0.56940
       O    12.44535  -13.42099   -1.03056
      H1    12.49067  -14.35898   -0.74431
       H     4.79671  -16.25227    1.59832
       O     4.60752  -15.46142    2.17053
      H1     4.90722  -14.61752    1.78121
       H     5.94940  -11.76849    9.78706
       O     5.23998  -12.34410    9.43061
      H1     5.64931  -13.23263    9.54353
       H     6.91016  -14.28722    0.23644
       O     6.13927  -13.80113    0.32578
      H1     6.26580  -12.94041   -0.17465
       H     7.04782  -16.78656   11.55865
       O     7.83525  -16.23517   11.71134
      H1     7.99175  -16.41218   12.63241
       H     7.19127  -10.28978    5.45293
       O     6.66734  -11.05829    5.15565
      H1     6.75815  -11.16611    4.21327
       H     9.29588  -10.52517    2.56361
       O     9.77464  -11.30511    2.75911
      H1    10.29840  -11.20308    3.59052
       H     4.23561  -17.34270    7.66974
       O     4.83981  -17.41018    8.43145
      H1     4.82879  -18.36408    8.69339
       H    10.05066  -17.14753    9.47080
       O    10.04465  -17.30804   10.41758
      H1     9.24242  -16.82617   10.76657
       H     5.38313  -18.51326    0.79901
       O     5.17484  -18.10476    1.61175
      H1     5.96069  -17.83215    2.08698
       H     3.45102  -16.25662    5.63609
       O     3.33043  -17.06306    6.18977
      H1     2.37236  -17.05862    6.38866
       H    14.08688  -13.10405    7.40916
       O    13.73926  -13.75716    6.79940
      H1    14.11858  -14.56068    7.12763
       H     5.69267  -12.06555    6.23155
       O     4.87640  -12.49301    6.61589
      H1     4.98922  -12.42976    7.57955
       H    11.95320  -14.58845    9.33471
       O    11.81228  -14.92808    8.42869
      H1    12.48259  -14.38247    7.91704
       H    17.77315  -15.51455    4.48497
       O    16.89696  -15.50896    4.07432
      H1    16.34641  -15.15086    4.77961
       H    10.58430  -19.06949   -2.69590
       O    10.51619  -18.13051   -2.75826
      H1    11.27629  -17.64234   -3.10284
       H    12.82570  -16.41500    8.22934
       O    13.57204  -16.96596    8.08427
      H1    13.49918  -17.63761    8.76107
       H    12.56971  -14.62616   11.23929
       O    12.39334  -13.71248   10.96574
      H1    11.97009  -13.40921   11.81298
       H    11.16802  -16.43814   -1.08878
       O    10.95536  -16.14004   -0.19486
      H1    10.05980  -15.73328   -0.35324
       H     4.12159  -15.80544   -0.69577
       O     4.68410  -15.34344   -1.33313
      H1     5.15438  -14.63580   -0.82979
       H    14.27058  -18.61866    5.46452
       O    14.33223  -18.84224    6.38727
      H1    13.83157  -18.14876    6.86185
       H     5.13575  -14.50282    5.00459
       O     4.33157  -14.94198    4.71890
      H1     4.46264  -15.15180    3.77621
       H    17.44280  -16.78352    1.33188
       O    16.74341  -16.11707    1.38216
      H1    16.67988  -15.83056    2.29806
       H     3.35918  -16.38694    9.27367
       O     2.78262  -15.81973    9.79613
      H1     2.73322  -14.96363    9.29844
       H    10.43440  -18.84319    4.77246
       O     9.62669  -18.43351    5.17587
      H1     9.87040  -18.08445    6.06812
       H     3.41322  -13.26978    4.59768
       O     3.10624  -12.55643    4.03106
      H1     2.53153  -12.93243    3.31456
       H    13.53417  -17.47882    3.46135
       O    14.35057  -17.89932    3.73357
      H1    15.13552  -17.25233    3.78474
       H    11.53749  -16.67238    1.57986
       O    11.41153  -17.05175    2.49180
      H1    10.45929  -17.08848    2.57332
       H     7.06325  -15.22723    8.61428
       O     6.89355  -14.63823    9.30296
      H1     7.44258  -14.93614   10.06594
       H    15.97909  -14.90489    8.74049
       O    15.88710  -15.41302    7.91549
      H1    15.15901  -16.00522    8.06527
       H    10.03539  -12.48584    1.06611
       O    10.05631  -13.01251    0.23284
      H1    10.98018  -12.87832   -0.07117
       H     5.93263  -18.21401   12.69848
       O     5.74211  -18.04156   11.75951
      H1     4.84535  -17.65032   11.73620
       H     9.02485  -16.74094    4.00675
       O     8.62343  -16.34771    3.16183
      H1     8.51460  -15.39406    3.34475
       H     8.85954  -16.52366    7.51840
       O     9.72997  -16.75207    7.76905
      H1    10.27308  -15.95169    7.80800
       H     7.05774  -15.69014    6.41119
       O     7.21952  -16.31822    7.14041
      H1     6.39813  -16.68961    7.45098
       H    10.51215  -11.97100    7.82712
       O    11.12079  -11.48241    8.40575
      H1    11.66417  -10.93981    7.88036
       H    11.85424  -19.72057   12.95190
       O    11.11290  -19.20897   12.61745
      H1    11.15765  -19.28006   11.65678

