159
frame 11 | Written by MDAnalysis XYZWriter (release 2.4.3)
       H    19.33862  -11.14738   12.52902
       O    19.21503  -11.39385   11.64495
      H1    18.68331  -12.17002   11.71513
       H    15.59975  -11.45146   12.84451
       O    15.20982  -12.10575   13.51017
      H1    14.41625  -12.33479   13.08956
       H    14.03599  -15.57925   12.51051
       O    13.58895  -15.92587   11.74878
      H1    12.73173  -16.16201   12.06844
       H     7.94439  -17.46030   14.16937
       O     7.79865  -17.08068   13.29660
      H1     6.86646  -16.98814   13.17776
       H     7.72349  -17.75112   16.50777
       O     8.39491  -17.65614   15.78715
      H1     8.46895  -16.67273   15.71167
       H     9.19192  -12.91538   13.07083
       O     9.89097  -13.44372   12.66694
      H1     9.94901  -14.23861   13.20231
       H    17.24632  -14.73726   18.21457
       O    16.91819  -15.57689   17.87581
      H1    17.54971  -16.17795   18.27209
       H    14.18380  -19.52605   15.54390
       O    14.08889  -18.58680   15.48210
      H1    13.36248  -18.50592   14.85140
       H     8.50327  -14.67845   17.54597
       O     8.85901  -14.74254   18.41114
      H1     9.57838  -14.13617   18.34624
       H    12.82655  -14.44368   15.03950
       O    12.01838  -14.16586   15.47593
      H1    11.24257  -14.48108   14.91812
       H    12.23569  -12.52921   15.06212
       O    12.63609  -11.65202   15.16498
      H1    12.81804  -11.35943   14.27245
       H    14.97690  -13.25172    5.42426
       O    15.12642  -13.29591    4.45762
      H1    15.72989  -12.52837    4.23220
       H    17.23868  -17.39745   14.45728
       O    17.65373  -17.66874   13.64924
      H1    18.60846  -17.61318   13.84618
       H    17.43556  -10.66176   11.62976
       O    16.51377  -10.39830   11.60558
      H1    16.08697  -11.07656   11.01571
       H    11.86141  -18.16149   13.30923
       O    11.89763  -18.66787   14.13958
      H1    12.49210  -19.41994   13.92790
       H    14.22398  -11.77274   15.86563
       O    14.88658  -11.75501   16.59192
      H1    14.86624  -10.84215   16.94358
       H    14.59525  -12.16211    9.23668
       O    14.00557  -12.08712    9.98047
      H1    13.49582  -12.88123   10.03849
       H     8.88726  -10.15388   14.06572
       O     9.20900   -9.31385   13.71204
      H1     9.61457   -9.57963   12.88968
       H    11.06790  -10.66343   15.92527
       O    10.30820  -10.58020   16.54516
      H1    10.26989  -11.32646   17.17249
       H     8.85767  -16.12061   11.07287
       O     9.16033  -15.35106   10.56784
      H1     9.12932  -14.55621   11.19297
       H    16.42415  -11.98238   16.05464
       O    17.37844  -11.89218   16.04158
      H1    17.62543  -11.08089   15.52213
       H    19.34220   -9.76460   15.17169
       O    18.65588   -9.95901   14.52534
      H1    18.08269   -9.21853   14.50772
       H    18.63331  -13.16370   15.41329
       O    19.33696  -13.66663   15.00860
      H1    19.07233  -13.92139   14.11924
       H    11.47822  -12.55052   12.73501
       O    12.11742  -11.88777   12.46301
      H1    12.22830  -12.04933   11.51067
       H     8.64263  -15.72492   14.14029
       O     9.00540  -15.23347   14.90999
      H1     8.28701  -14.54223   15.07174
       H    10.85271  -17.72453   11.58541
       O    11.00349  -16.81367   11.92058
      H1    10.47700  -16.24554   11.37896
       H    10.96875  -10.48760   11.99899
       O    10.37522  -10.02497   11.45421
      H1    10.80637   -9.15954   11.44130
       H    10.34651  -18.36785   17.82313
       O    10.10192  -17.90466   18.62164
      H1     9.72733  -17.08980   18.38479
       H    16.99457  -19.03829   12.88573
       O    16.82390  -19.82621   12.35401
      H1    15.84358  -19.91493   12.47896
       H    14.22043  -13.93038    7.42318
       O    14.75268  -13.14358    7.15040
      H1    15.66026  -13.47027    7.19692
       H    14.76887  -15.40880   14.33615
       O    14.33993  -14.62464   14.08887
      H1    15.03665  -14.01459   14.08440
       H    15.94116  -18.52851    9.94757
       O    16.37024  -19.40581    9.85172
      H1    16.51380  -19.62999   10.73622
       H    13.33659  -13.92832   18.89052
       O    13.14846  -12.99368   18.80138
      H1    13.76121  -12.67153   18.08907
       H    12.36516  -16.01518    7.51381
       O    11.61353  -15.51449    7.74098
      H1    11.01349  -15.59191    6.97318
       H    17.50647  -18.84469    8.54874
       O    18.35591  -18.61108    8.12992
      H1    18.93460  -18.37616    8.87065
       H     9.32822  -19.48565   16.30634
       O    10.31070  -19.50066   16.38943
      H1    10.58601  -19.03038   15.59903
       H    14.39443   -9.12262   11.26859
       O    13.60858   -9.70688   11.25754
      H1    13.86551  -10.54488   10.78399
       H    13.51775  -17.51163   11.18002
       O    13.73957  -18.38842   10.82283
      H1    13.14541  -18.38798   10.08193
       H    11.93617  -14.30330    9.21940
       O    12.25630  -14.00559   10.08467
      H1    12.72267  -14.73955   10.59720
       H    17.09766  -13.03587   13.13442
       O    17.83649  -13.52165   12.59813
      H1    17.42303  -14.35330   12.26762
       H    13.87361  -18.31458    5.42525
       O    14.32478  -18.44438    6.25170
      H1    13.65394  -18.61084    6.96587
       H    17.61974  -17.04326    8.56819
       O    16.97489  -16.31186    8.78519
      H1    17.13269  -15.97079    9.68940
       H    16.33084  -16.06380   16.06722
       O    15.88044  -16.52602   15.36649
      H1    15.34222  -17.25642   15.76739
       H    15.30971  -16.10190    8.28348
       O    14.56924  -16.04556    7.66056
      H1    14.93282  -16.71704    7.07210
       H    10.73508  -19.64818    5.42260
       O    10.14024  -18.99644    5.83704
      H1    10.57534  -18.74541    6.67519
       H     8.90988  -11.46854   15.52067
       O     8.38638  -11.83202   14.81907
      H1     7.51570  -11.46923   14.89256
       H    17.56728  -12.36451    8.67802
       O    16.90920  -11.90203    9.18798
      H1    16.55107  -11.19055    8.66568
       H     6.98781  -15.76423    8.16947
       O     7.11547  -14.95554    8.76671
      H1     7.78737  -15.23193    9.41522
       H    17.00637  -16.41673   11.86361
       O    17.32546  -15.62934   11.30844
      H1    18.25015  -15.84071   11.14941
       H     8.60674  -18.32524   10.36931
       O     7.75864  -17.86053   10.56300
      H1     7.62473  -17.84302   11.53900
       H     9.10817  -17.27279    8.20953
       O     9.91481  -17.81991    8.35885
      H1    10.67143  -17.19953    8.46314
       H    13.45106  -18.41101   17.71832
       O    13.14388  -18.68445   18.58668
      H1    12.38837  -18.13352   18.76288
       H     9.98900  -12.53201    7.17168
       O    10.75445  -11.93538    6.99732
      H1    10.67934  -11.89687    6.05049

