159
frame 2 | Written by MDAnalysis XYZWriter (release 2.4.3)
       H     4.77616   17.10435  -13.92581
       O     4.15202   17.37103  -14.60441
      H1     3.28251   17.58286  -14.14039
       H     4.61246   14.70956  -19.69525
       O     3.91858   14.04571  -19.77094
      H1     3.69170   13.78422  -18.86026
       H     9.28825    8.42610  -12.14974
       O     8.74887    8.84244  -11.44278
      H1     9.11515    8.61871  -10.52482
       H    10.96925   10.29489  -15.54337
       O    11.33604   11.16822  -15.16930
      H1    12.23363   10.85467  -14.79572
       H    11.09961   16.49981  -15.79071
       O    11.85139   16.09071  -16.25312
      H1    11.59438   15.17593  -16.33774
       H     9.61516   14.94381  -12.82693
       O     9.07479   15.47149  -13.38487
      H1     8.71559   15.03210  -14.16499
       H     7.30478   16.13208  -13.21039
       O     6.42267   16.53312  -13.29686
      H1     6.44933   17.04436  -12.45819
       H     3.27490   15.96388  -15.94971
       O     2.81281   15.45647  -16.59894
      H1     2.23970   16.15387  -16.93442
       H     3.34828   12.51558  -11.35132
       O     3.71293   11.97182  -10.60962
      H1     2.90596   11.96836  -10.07329
       H     5.13335   13.71918  -15.52081
       O     5.80116   13.44813  -16.12683
      H1     6.29088   12.72698  -15.67789
       H    12.73921    7.50759  -15.86470
       O    12.97736    8.39205  -16.15520
      H1    12.65444    8.39434  -17.08998
       H    10.36463   13.00086  -10.39633
       O     9.50907   13.18087  -10.83927
      H1     9.49533   12.47810  -11.61519
       H    11.91181   10.78230  -10.97252
       O    11.92383   11.56619  -10.34027
      H1    11.61248   11.08481   -9.48552
       H     9.52723   18.34305  -15.13240
       O     9.79460   17.45386  -15.22955
      H1     9.56951   16.99124  -14.41659
       H     4.15972    8.54000  -12.29387
       O     4.97540    8.12580  -11.89366
      H1     5.58932    8.83077  -11.61389
       H     9.61310    8.38724  -17.22536
       O     9.45850    9.19309  -16.66047
      H1     9.35165    9.89676  -17.32785
       H    11.73843    5.36503  -16.41178
       O    12.36395    5.58215  -15.71568
      H1    13.18846    5.74606  -16.11078
       H    12.44156    8.95387  -11.79363
       O    11.54373    9.36837  -11.90401
      H1    10.96787    9.07148  -11.19778
       H     5.71818    9.32344  -14.84699
       O     5.76529    9.02804  -15.78698
      H1     6.20141    9.69901  -16.38427
       H     7.21574   14.79068  -16.11152
       O     8.07447   15.18145  -15.94031
      H1     8.18015   16.01617  -16.43166
       H     9.69288    5.01975  -12.96361
       O     9.39041    5.89360  -12.70310
      H1     9.60142    6.55056  -13.38724
       H     8.50066    4.28223  -15.21097
       O     9.06263    3.82685  -14.51462
      H1     8.49243    3.07901  -14.29359
       H     2.46794   12.36411  -17.69917
       O     3.33260   12.75200  -17.41100
      H1     3.12673   13.66756  -17.03945
       H    14.43503    9.39781  -15.94579
       O    15.11538   10.04816  -15.89831
      H1    15.22233   10.58492  -16.72148
       H     8.57552   15.98459  -19.00597
       O     9.18014   16.37459  -18.39895
      H1     9.92725   16.53029  -18.97345
       H     4.12013    7.85609  -17.51511
       O     3.86224    6.87765  -17.41271
      H1     2.88537    6.91880  -17.43195
       H    14.30805   11.20868  -14.76645
       O    13.78651   12.03655  -14.48718
      H1    13.86050   12.11969  -13.49585
       H     6.22473   13.47896  -17.84235
       O     6.74781   13.66609  -18.66361
      H1     7.65270   13.52034  -18.37018
       H     9.99606   13.70312  -19.07471
       O     9.63884   13.75916  -18.20472
      H1     9.39376   14.72377  -17.92283
       H     9.07604    7.02638  -18.76981
       O     9.51993    6.69223  -18.00116
      H1    10.25613    6.20685  -18.35744
       H     7.94747   12.95483  -10.20499
       O     7.03604   12.84440   -9.92175
      H1     6.61566   13.47793  -10.50597
       H    14.11954   15.03656  -14.50203
       O    13.37263   15.56956  -14.15517
      H1    12.79718   15.59827  -14.96836
       H     9.43171   10.84447  -19.73283
       O     9.97262   10.63339  -18.97615
      H1    10.69591   11.29972  -18.92934
       H     0.67154    7.97086  -16.64084
       O     1.46857    8.18105  -17.14349
      H1     1.97462    8.77106  -16.59269
       H     3.82537    9.76863  -15.97502
       O     3.01192   10.04498  -15.59445
      H1     3.10814    9.77271  -14.64968
       H     3.62048   12.04025  -14.79928
       O     3.69298   12.75415  -14.10999
      H1     4.36969   12.41670  -13.51240
       H     8.65242    5.43838  -17.44267
       O     8.07755    4.76167  -17.02485
      H1     7.43627    5.30398  -16.54871
       H    10.13046   11.85141  -13.78606
       O     9.33239   11.72900  -13.18942
      H1     9.44861   10.87004  -12.78666
       H     9.49394    8.63256  -14.80439
       O     9.80863    8.32884  -13.95830
      H1    10.65222    8.78981  -13.84198
       H     7.37944   10.03739  -11.25602
       O     6.48209   10.28085  -10.89663
      H1     6.56477   11.18192  -10.62676
       H     6.05123   11.42972  -17.79201
       O     6.63861   10.65258  -17.89009
      H1     6.74375   10.64005  -18.85368
       H     5.74833   15.13825  -12.31813
       O     5.39118   14.48046  -11.71276
      H1     4.69763   14.87210  -11.19432
       H    12.61432   12.66005  -18.68594
       O    12.50120   12.08559  -19.42900
      H1    13.33838   11.62542  -19.34203
       H     2.39884   13.31863  -12.97349
       O     1.68161   13.62650  -12.36897
      H1     0.82441   13.37572  -12.68251
       H     6.58406   11.04675  -13.92722
       O     5.71671   10.84955  -13.48517
      H1     5.93965   10.75553  -12.48931
       H     5.67936    6.44856  -15.86761
       O     5.64599    5.62915  -15.37292
      H1     6.02319    5.97321  -14.54452
       H     7.52183    6.03230  -12.60077
       O     6.60357    6.03441  -12.81694
      H1     6.11765    6.66047  -12.32761
       H    10.80053   16.46763  -12.10763
       O    11.45353   15.77502  -12.13036
      H1    11.87938   15.68477  -12.97121
       H    11.59644    9.33043  -19.30469
       O    12.36712    8.86135  -18.91080
      H1    12.87265    8.48893  -19.63783
       H    11.07198   13.27136  -17.21740
       O    11.95827   13.24824  -16.82282
      H1    11.95691   12.64415  -16.11823
       H     2.43811    9.83387  -11.68415
       O     2.44769    9.37359  -12.54000
      H1     1.81073    8.69810  -12.44490
       H     8.42564   11.71225  -14.82086
       O     7.60404   11.52931  -15.34195
      H1     7.80775   11.12034  -16.18799
       H     2.79127    4.43539  -13.74840
       O     3.04522    5.39377  -13.63121
      H1     3.80762    5.51117  -14.23222

