159
frame 9 | Written by MDAnalysis XYZWriter (release 2.4.3)
       H    17.61922   -1.96414   12.84133
       O    16.87890   -1.79911   13.44229
      H1    17.21949   -1.29521   14.16324
       H    17.48812    4.71738    6.11123
       O    17.18439    3.88565    5.68701
      H1    16.55573    3.57038    6.28910
       H    17.65393    6.73543    6.40303
       O    18.39208    6.13205    6.66186
      H1    19.07418    6.46007    6.06038
       H    18.56396    5.43559   12.17425
       O    19.35674    5.56380   12.71614
      H1    19.88589    4.77235   12.58107
       H    14.91848   -7.42172    4.38112
       O    14.38142   -6.63034    4.19283
      H1    14.64885   -6.52194    3.22564
       H    15.21627    2.96338    2.59367
       O    15.42013    3.65385    1.93298
      H1    16.32752    3.45217    1.62729
       H    18.74054   -3.67777   11.50907
       O    18.94810   -2.76204   11.59206
      H1    19.90805   -2.70797   11.74694
       H    18.69097    5.96334    2.69578
       O    19.45636    6.58272    2.52467
      H1    19.77380    6.43460    1.63375
       H    19.25919   -4.53640    0.30657
       O    18.55568   -5.20108    0.56222
      H1    18.57420   -5.22083    1.50222
       H    15.29319    3.70880    8.86942
       O    15.42603    4.17480    8.00276
      H1    15.08881    5.09415    8.14876
       H    14.46071   -7.02216   10.05888
       O    14.29896   -7.65934    9.34503
      H1    14.77492   -7.27793    8.57732
       H    11.12258   -3.39143    6.02256
       O    11.41026   -3.50056    6.98485
      H1    12.16498   -2.79847    7.07268
       H    18.18743    7.33247   10.29069
       O    17.60805    6.79969    9.80808
      H1    18.05473    6.92854    8.95372
       H    13.97938    3.93582    5.40686
       O    14.07301    3.10772    5.91301
      H1    14.56670    3.50137    6.64329
       H    18.67614   -4.51304    6.72225
       O    17.91752   -3.90530    6.53367
      H1    17.50240   -3.91176    7.38809
       H    11.64994    2.41565    6.49825
       O    10.87330    2.84649    6.88668
      H1    10.13431    2.45511    6.47576
       H    16.07369   -1.19847   11.28853
       O    16.65101   -1.29235   10.56376
      H1    16.19131   -1.96969    9.99247
       H    17.27060    2.49378   -0.41120
       O    17.44150    3.14125    0.32451
      H1    18.42133    3.41916    0.25153
       H    17.27624   -8.18801    4.22301
       O    16.81330   -9.05544    4.39753
      H1    16.67075   -8.94228    5.35632
       H    12.38422   -4.54809    3.52016
       O    12.66832   -3.80654    4.10261
      H1    13.60333   -3.98744    4.15328
       H    15.92156    0.25296   14.20463
       O    15.02670    0.34900   14.52849
      H1    14.53535   -0.10303   13.82343
       H    14.94165    0.54990   -0.87509
       O    14.59805    0.68194   -1.77155
      H1    14.99101    1.54623   -2.06058
       H    14.32164    1.99890    4.38367
       O    14.71652    1.59113    3.58892
      H1    13.88259    1.27767    3.11259
       H    19.22386    3.07240    8.57106
       O    19.49543    3.75696    7.96741
      H1    18.58241    4.02533    7.76374
       H    15.26064   -3.02783    5.03136
       O    15.42355   -3.96245    5.04486
      H1    16.32405   -4.05426    5.41432
       H    13.50334   -1.54337    8.28048
       O    13.67327   -1.98586    7.43993
      H1    13.98611   -1.30492    6.79562
       H    16.27163    1.64853    9.93592
       O    15.59688    2.32336   10.09630
      H1    14.70008    1.98697    9.84918
       H    15.52914   -4.41184    8.22431
       O    16.19530   -4.09828    8.83300
      H1    16.41939   -4.86943    9.34063
       H    17.87130    0.09762   10.33489
       O    18.26248    0.98988   10.24636
      H1    19.24596    0.97427   10.44825
       H    16.81726   -3.36493    1.23733
       O    16.11063   -3.06626    0.68083
      H1    16.48144   -3.10947   -0.19555
       H    17.82064   -1.04120    5.08352
       O    17.23116   -0.75074    4.40152
      H1    17.03649    0.17743    4.44973
       H    18.22728   -3.75618    3.45775
       O    17.42144   -4.29484    3.20696
      H1    16.56115   -3.99941    3.61117
       H    13.56152   -4.74800    7.53448
       O    14.29741   -5.22685    7.17086
      H1    14.64267   -4.76326    6.40759
       H    12.51426   -1.65462    3.41081
       O    12.95693   -0.96389    2.87930
      H1    12.58617   -0.15180    3.27238
       H    14.25702    5.11202    3.81272
       O    13.75077    5.39046    4.58604
      H1    13.50532    6.30903    4.39183
       H    18.74597   -4.37804   14.76339
       O    18.02900   -4.32424   14.05301
      H1    17.68892   -3.40645   14.01786
       H    14.90059   -5.86602   12.60261
       O    15.01260   -5.63926   11.67813
      H1    14.72263   -4.72646   11.58316
       H    18.15246   -2.66732   -2.12071
       O    17.30361   -2.41331   -1.80302
      H1    17.12121   -1.46011   -1.80640
       H    15.43708   -5.87682    0.27695
       O    15.12578   -5.61984    1.16730
      H1    15.64452   -4.83679    1.35734
       H    18.67753   -2.40748    6.47030
       O    18.91483   -1.45805    6.47580
      H1    19.87661   -1.46956    6.24890
       H    16.52471    2.32427   11.73038
       O    16.94478    2.15978   12.56786
      H1    17.54155    1.40462   12.30219
       H    15.88472   -0.89296    0.60128
       O    16.15285   -0.01104    0.43679
      H1    15.83922    0.45821    1.20196
       H    18.41563   -7.24072    2.81832
       O    18.24927   -6.83230    3.67676
      H1    17.84093   -6.00943    3.51007
       H    12.35751   -1.80246   10.99100
       O    12.34558   -1.33276   10.06267
      H1    11.36329   -1.32373    9.83406
       H    16.44285    4.93796    2.86079
       O    17.27204    5.13331    3.29580
      H1    17.24213    4.63065    4.18462
       H    15.74310   -1.02210    4.88759
       O    14.78489   -1.25033    4.95846
      H1    14.31213   -0.98341    4.17806
       H    18.09974   -5.97023   11.82474
       O    17.53410   -5.47699   11.18534
      H1    16.63557   -5.67113   11.43144
       H    16.41575  -10.36892    7.34023
       O    16.70154   -9.49531    7.11476
      H1    17.53517   -9.27754    7.50688
       H    18.95942   -5.67801   13.54777
       O    19.28069   -6.54328   13.24737
      H1    20.20549   -6.60972   13.55895
       H    17.37354   -5.94561   -1.20596
       O    16.55991   -6.39271   -1.00540
      H1    16.83901   -7.19694   -0.43911
       H    11.78749    2.36973    2.77793
       O    12.03737    1.63249    3.34975
      H1    11.32484    1.56405    4.02001
       H    12.43170    2.23281    9.70380
       O    13.07302    1.52242    9.71508
      H1    12.69795    0.71539   10.06851
       H    19.09891   -8.29988    8.57295
       O    18.94572   -7.86130    9.40054
      H1    18.12399   -8.22434    9.75768

