159
frame 1 | Written by MDAnalysis XYZWriter (release 2.4.3)
       H    17.05310   11.86372    3.51814
       O    16.64829   11.50243    2.69033
      H1    17.34928   10.95863    2.29453
       H    16.78194    4.28580    5.91457
       O    17.35202    3.78419    6.46739
      H1    16.81073    3.69391    7.27138
       H    16.13343    6.25006    4.25952
       O    16.68566    5.46489    4.02135
      H1    17.62099    5.82940    4.24901
       H    18.55052    9.69530    0.57460
       O    18.75630   10.11620    1.40161
      H1    19.72682   10.02245    1.52193
       H    14.62235   14.33472    1.82904
       O    14.97464   14.39521    0.93730
      H1    15.82385   13.87629    0.86633
       H    14.25665    9.52009    1.97898
       O    14.73947    8.70411    2.05024
      H1    14.88814    8.45589    1.12444
       H     8.43372   12.38902    8.87169
       O     9.18523   12.92556    8.58176
      H1     9.44929   12.56066    7.74384
       H    18.80049   13.89230    1.74515
       O    19.70696   13.79221    1.44877
      H1    20.28770   13.89537    2.24350
       H    18.63507   10.84875   11.84523
       O    18.94421   10.68208   12.81854
      H1    19.18166    9.72537   12.84966
       H    20.20896   16.28045    9.52866
       O    19.24940   16.46794    9.55776
      H1    18.88300   16.22325    8.70098
       H    15.88567   11.91468   -0.82299
       O    15.54214   11.20940   -0.25068
      H1    16.23688   11.41266    0.41803
       H    11.89355    9.41780   13.46118
       O    11.91938    9.74573   12.56162
      H1    12.05810    8.89648   12.09204
       H    13.42956   11.10468    8.26544
       O    12.54579   10.81777    8.60760
      H1    12.27748   11.59140    9.16627
       H    12.96549    5.52214    4.81568
       O    12.90306    4.82127    4.13639
      H1    11.97671    4.68404    4.01880
       H    13.51533   15.57764    7.30038
       O    13.52034   14.87002    7.97416
      H1    14.50778   14.75443    8.13801
       H     9.85628    7.86248    4.78170
       O    10.26035    6.99019    4.71852
      H1    10.53716    6.95503    3.73503
       H    15.05728    9.47303    8.89911
       O    15.11556    8.91959    9.67534
      H1    14.26227    8.41312    9.52843
       H    14.68205    9.62748   11.46869
       O    14.47331   10.13094   12.23984
      H1    13.51737   10.00233   12.37712
       H    14.03399   16.29894    3.05495
       O    13.76849   15.49196    3.42747
      H1    13.50107   15.72075    4.35564
       H    12.90575    6.74746    7.02496
       O    12.77115    7.03774    6.08685
      H1    11.81697    7.00423    5.98375
       H    16.98714    8.63881    3.69345
       O    17.89696    8.81348    3.62860
      H1    18.07045    9.03589    2.68261
       H    18.85069    9.32385    6.19226
       O    18.95399    8.47076    6.63869
      H1    18.05073    8.20496    6.94429
       H    15.66936   13.64100    9.12618
       O    16.06812   14.48028    8.77631
      H1    16.06395   15.14131    9.51698
       H    17.96106   10.19159    4.62056
       O    18.04171   10.97008    5.18576
      H1    18.98560   11.10610    5.13313
       H    15.68084    7.15424    7.85536
       O    16.22730    7.53405    7.10295
      H1    15.69590    7.95087    6.44470
       H     9.49987   10.22582    5.44064
       O     9.08545    9.64550    4.78019
      H1     8.32587   10.17290    4.46033
       H    12.54588   17.35862    5.84854
       O    13.46890   17.10622    5.95502
      H1    14.02382   17.62104    5.40768
       H     9.98415   14.21249    4.95451
       O    10.43586   13.36339    4.70201
      H1    11.41958   13.61472    4.88091
       H    17.87296   10.78184    8.64031
       O    17.90076   11.53513    8.04488
      H1    18.13725   11.18262    7.20042
       H    14.58625    7.88682    3.58773
       O    14.90593    7.68525    4.46922
      H1    14.18107    7.27098    4.94797
       H    13.85771   13.71774    4.76936
       O    13.09897   13.43160    5.25314
      H1    13.40609   13.45508    6.15030
       H    18.70159   14.11304   12.34133
       O    17.78882   13.76739   12.12182
      H1    17.45960   13.53855   12.97971
       H    17.27085   10.57291   13.69088
       O    16.37036   10.66921   14.08584
      H1    15.71518   10.25200   13.50348
       H    11.78066    6.71711   11.80764
       O    11.53519    7.09641   10.94322
      H1    10.66556    6.75794   10.73232
       H    16.16863   11.03781    7.84220
       O    15.28484   10.81236    7.68849
      H1    15.20930   10.77541    6.69092
       H    15.11623    9.57871    4.73134
       O    15.08771   10.53114    4.84104
      H1    15.58065   10.92837    4.06292
       H    12.54921    6.21075    9.61792
       O    12.90756    5.96713    8.73939
      H1    12.38644    5.31063    8.23709
       H    10.98884   11.25717    6.78050
       O    10.12527   11.49222    6.50733
      H1    10.22347   12.15664    5.75230
       H    14.56462   16.04771   12.79264
       O    14.50532   15.14779   13.11584
      H1    14.85149   14.50174   12.43652
       H     9.89497    7.18429    1.66644
       O    10.75350    6.84523    1.94250
      H1    11.40502    7.51524    1.71666
       H    11.13618   13.28430    9.73861
       O    11.49567   12.81546   10.44655
      H1    10.75075   12.60747   10.99457
       H    18.36017    9.30169    9.97399
       O    17.62739    9.89510   10.18465
      H1    16.84016    9.33484    9.97586
       H    17.25196   16.59964    4.06721
       O    17.83496   15.91567    3.62396
      H1    18.44131   15.72747    4.35111
       H    17.12549   15.54031    7.70402
       O    17.68762   16.11201    7.17632
      H1    17.19436   16.77591    6.66847
       H    13.09267   15.16173   10.86080
       O    12.91435   15.87643   10.24594
      H1    13.19848   15.66118    9.35709
       H    16.95079   14.41538    4.40167
       O    16.50204   13.75747    5.00919
      H1    17.23257   13.59968    5.67498
       H    13.34423   13.01451   10.69954
       O    14.22201   13.02779   11.06971
      H1    14.39683   12.16349   11.39166
       H    12.26687   15.33148    2.69338
       O    11.36881   15.28896    2.24055
      H1    11.29714   14.33621    2.17658
       H    14.45960    5.67402    9.30845
       O    15.41798    5.92059    9.33493
      H1    15.71830    5.98030   10.27276
       H    12.85763   10.82517    3.11227
       O    12.85910   11.06470    2.17498
      H1    11.98239   10.92046    1.78789
       H    13.64538   13.26318    0.56637
       O    12.66655   13.21876    0.57684
      H1    12.48791   12.54359    1.22519
       H    17.67998   16.29520   10.55276
       O    16.75633   16.27870   10.84902
      H1    16.76755   15.55690   11.51877
       H    18.96437   12.66122    8.96318
       O    19.43299   13.28279    9.55028
      H1    18.92473   13.45215   10.33507

