159
frame 8 | Written by MDAnalysis XYZWriter (release 2.4.3)
       H    -5.14955    6.49433   -7.32589
       O    -5.21586    5.64359   -6.82081
      H1    -6.05951    5.69761   -6.44169
       H   -10.24003    8.32465  -11.27463
       O    -9.79051    8.51840  -12.14583
      H1    -9.92719    7.71624  -12.69304
       H   -10.96688    7.50795   -5.19831
       O   -10.02307    7.42683   -4.95232
      H1   -10.01572    7.42969   -4.01964
       H    -7.80868    6.82212   -8.06303
       O    -7.89388    6.61900   -7.13002
      H1    -8.60620    6.02950   -6.95478
       H   -13.07595    2.25458   -6.60837
       O   -12.35006    1.85838   -6.04449
      H1   -11.49894    2.08850   -6.33563
       H   -11.42183   -1.65025  -10.05357
       O   -10.95565   -0.83225  -10.22192
      H1   -10.87296   -0.66747  -11.15666
       H   -10.25624    4.27798   -6.78830
       O   -10.18742    4.49826   -7.73619
      H1    -9.44523    3.97970   -8.06612
       H    -6.60832    3.52831   -4.54999
       O    -6.10358    3.26706   -3.74469
      H1    -6.58165    2.43315   -3.43049
       H   -10.69375    4.32686   -4.23483
       O    -9.89989    4.56878   -4.70983
      H1    -9.96057    5.51750   -4.77845
       H    -7.23929    9.49501   -5.68511
       O    -6.64722    8.71384   -5.71813
      H1    -7.10786    8.01999   -6.26140
       H    -4.85698   -0.95506   -5.94477
       O    -5.08137   -0.33298   -5.23387
      H1    -4.42091    0.35895   -5.19847
       H    -9.18060   11.35169   -8.89578
       O    -8.96783   10.39411   -8.81590
      H1    -9.02810   10.19799   -7.87082
       H    -8.03109   -0.57533   -7.77647
       O    -8.01868   -0.83391   -8.73906
      H1    -8.95671   -1.05640   -8.94141
       H    -7.38510    3.03118   -6.23759
       O    -7.50210    3.89268   -5.89294
      H1    -8.40559    3.94892   -5.50349
       H    -2.81103    7.37759  -10.25642
       O    -3.65060    6.95953  -10.41473
      H1    -3.94304    7.33424  -11.23834
       H   -14.81566    0.90461  -11.38260
       O   -14.54012    1.77867  -11.12247
      H1   -15.24995    2.18226  -10.67923
       H    -5.85550    7.38341  -13.17847
       O    -5.43991    6.54939  -12.89978
      H1    -4.58472    6.54570  -13.29645
       H   -12.82738    1.99855  -10.19917
       O   -12.10445    1.83027   -9.62485
      H1   -11.78488    0.91650   -9.85670
       H    -6.30959    1.52252   -7.39200
       O    -6.81329    1.35265   -6.62502
      H1    -6.16039    0.91935   -6.11008
       H   -11.95331   10.85838   -6.30240
       O   -11.61672   10.45189   -7.12493
      H1   -12.34200   10.48105   -7.70103
       H   -10.58485    9.42569   -9.66805
       O   -11.08460    8.59579   -9.81110
      H1   -11.94511    8.86456  -10.20688
       H   -10.52557    5.56613  -13.00964
       O   -10.01283    6.19349  -13.56490
      H1    -9.11755    5.86363  -13.46091
       H   -11.55903    4.95670  -11.04073
       O   -11.37469    4.55127  -11.89622
      H1   -12.18612    4.24022  -12.28626
       H    -6.62506    1.42149  -11.14270
       O    -6.83858    0.50957  -10.89441
      H1    -7.60000    0.48465  -10.31465
       H    -6.71622    3.09812   -8.63749
       O    -5.76641    3.26215   -8.43713
      H1    -5.81851    4.03895   -7.87123
       H   -13.51013    6.91655   -7.18555
       O   -13.95699    6.36860   -7.86239
      H1   -13.21309    6.04995   -8.44532
       H    -7.13492   10.14221  -11.10460
       O    -7.68236    9.95999  -11.85774
      H1    -8.38126    9.26405  -11.72382
       H   -10.15466    3.19742  -11.85853
       O    -9.21148    2.90193  -11.75182
      H1    -8.74584    3.68771  -12.14861
       H   -13.13407    3.11498   -8.32530
       O   -13.83800    3.45156   -7.73514
      H1   -13.83478    4.42352   -7.82801
       H    -8.79280    2.93369  -10.02698
       O    -8.49599    2.98160   -9.10818
      H1    -8.81226    2.18538   -8.66182
       H   -11.66499    6.88567   -9.50071
       O   -11.86630    5.92755   -9.50072
      H1   -11.36969    5.49845   -8.78441
       H   -15.14614    2.31510   -8.00760
       O   -15.53363    1.46466   -7.96663
      H1   -14.80050    0.83620   -7.79946
       H    -3.94228    5.51168   -5.41418
       O    -3.40759    5.79167   -4.70176
      H1    -2.80557    5.05809   -4.57865
       H    -8.92766    1.06548   -2.96502
       O    -7.97966    1.09874   -2.95258
      H1    -7.74418    0.20177   -2.74445
       H   -10.50781    0.68416   -1.41576
       O   -10.91340    0.90868   -2.25335
      H1   -11.50738    1.66199   -2.05564
       H   -12.76028    0.03077   -7.47580
       O   -13.65300   -0.34403   -7.57386
      H1   -13.97412   -0.44479   -6.68122
       H    -2.81198    3.92757  -11.05014
       O    -2.51018    4.54115  -10.38784
      H1    -3.09979    5.30594  -10.36044
       H   -14.25213    4.24983  -13.14741
       O   -13.60502    3.55345  -13.25841
      H1   -13.96788    2.78499  -12.74483
       H   -10.61834   -1.16200   -4.48661
       O   -10.07913   -1.03497   -5.27105
      H1    -9.65268   -1.87348   -5.56734
       H   -10.02551   -1.37712  -13.53769
       O   -10.15275   -0.50158  -13.19557
      H1    -9.30734   -0.01221  -13.31900
       H    -6.99084    4.88668   -1.17894
       O    -7.42991    5.16914   -2.05272
      H1    -7.04280    4.61700   -2.74223
       H    -4.85620    7.71455   -9.06304
       O    -5.20812    7.92207   -8.18617
      H1    -4.45247    8.55219   -7.87837
       H    -7.39505   -3.22815   -6.26262
       O    -8.12712   -2.64413   -6.54832
      H1    -7.82310   -2.19734   -7.28902
       H    -9.98186   10.26300   -6.22428
       O    -9.18713    9.86502   -5.79336
      H1    -9.33644    8.95173   -5.64963
       H   -12.66166    3.00256   -4.80282
       O   -12.51138    3.61724   -4.06588
      H1   -13.29895    4.21118   -4.10521
       H    -6.20392    9.18749   -9.06901
       O    -6.32975   10.08892   -9.42497
      H1    -7.29507   10.24507   -9.39943
       H    -4.82275   -0.45036  -10.44535
       O    -4.25151   -1.13250  -10.19624
      H1    -4.31031   -1.88137  -10.76536
       H    -3.37796    4.77117   -7.45645
       O    -2.80183    4.05783   -7.73331
      H1    -2.66101    4.24133   -8.67636
       H    -4.93691    2.77123  -10.37743
       O    -5.21605    2.81034  -11.28783
      H1    -5.59115    3.68246  -11.31762
       H    -9.94188    0.74886   -6.18806
       O    -9.48773    1.27009   -6.90367
      H1    -8.54040    1.37085   -6.59657
       H    -7.25575    4.23412  -13.80432
       O    -7.35970    4.67470  -12.98699
      H1    -6.65811    5.38564  -13.00877
       H    -9.45310    5.89110   -2.47170
       O    -9.76394    6.77276   -2.39121
      H1   -10.34927    6.71101   -1.68092
       H   -12.30858    8.77788   -6.57137
       O   -12.57456    8.08789   -6.00221
      H1   -13.05741    8.38703   -5.20907

