159
frame 3 | Written by MDAnalysis XYZWriter (release 2.4.3)
       H    -6.05903   12.30927   16.34466
       O    -5.19603   12.61944   16.63075
      H1    -5.31957   13.54454   16.86547
       H    -7.03030   10.73741   14.41143
       O    -7.39964   11.23947   15.15823
      H1    -7.47098   10.69225   15.95864
       H    -8.96521   14.65121   14.54224
       O    -8.08753   14.32413   14.34190
      H1    -8.23218   13.38506   14.54097
       H    -9.09783   14.29160   17.57767
       O    -9.16409   15.12989   17.15169
      H1    -8.96799   15.77329   17.83087
       H   -14.57736   12.30573   15.78378
       O   -13.96426   12.20946   15.07326
      H1   -13.68439   13.03700   14.77430
       H   -12.78359   14.82137   16.51355
       O   -13.02710   15.21585   15.68678
      H1   -14.00268   15.28786   15.66764
       H    -7.14724   17.85000   11.71400
       O    -7.54347   17.17535   12.20877
      H1    -7.04054   16.39821   11.97228
       H   -10.27527   16.42671   10.25114
       O    -9.38655   16.58776    9.90554
      H1    -8.85872   16.86263   10.65675
       H   -13.03634   16.60781    8.03960
       O   -12.60919   17.35680    8.44957
      H1   -12.35513   17.02727    9.31536
       H    -8.03079   16.07129   19.95256
       O    -7.12160   15.81155   19.87906
      H1    -6.94156   16.20917   19.00686
       H    -6.08459    9.84256    9.78409
       O    -6.75626   10.40666   10.21916
      H1    -6.68660   10.14116   11.16097
       H   -11.73173   18.16480   18.29145
       O   -12.34677   17.45222   17.89405
      H1   -13.23505   17.80104   17.71413
       H    -6.99004   14.47989   12.66109
       O    -6.49687   14.55692   11.79855
      H1    -6.96737   14.12124   11.09594
       H   -11.70418   10.84613   16.98064
       O   -11.50029   11.64863   16.40367
      H1   -12.31680   11.84885   15.98532
       H   -13.35272   11.05660   13.75302
       O   -12.99934   10.31439   13.21763
      H1   -13.85016    9.86445   13.13506
       H   -11.49421   13.46280   12.36405
       O   -12.09885   14.09529   12.72298
      H1   -11.60472   14.44429   13.44026
       H   -13.05397    8.74969   14.55009
       O   -13.00411    8.20014   15.39202
      H1   -13.83631    7.75402   15.38439
       H   -13.39332   10.40733   11.50504
       O   -13.73441   10.65194   10.65680
      H1   -14.60050   10.25662   10.62195
       H    -7.13945    8.51091   18.75549
       O    -7.50475    9.38294   18.89452
      H1    -7.97883    9.33373   19.70177
       H    -4.05696   11.60205   13.63556
       O    -4.71906   11.39935   12.97897
      H1    -4.44725   11.78252   12.15248
       H   -11.87338   15.72253   11.71795
       O   -11.86721   16.54413   11.25075
      H1   -11.45847   17.26321   11.76158
       H   -11.34198   16.69710   15.22249
       O   -10.42366   16.70906   14.86915
      H1   -10.00314   16.75280   15.74280
       H   -10.05008   11.16621   11.24976
       O   -10.34507   12.06726   11.54129
      H1   -10.57350   12.43925   10.66431
       H    -5.69474   19.80558   16.69765
       O    -5.93999   19.78629   17.62631
      H1    -5.16722   19.43686   18.04346
       H   -11.49920   13.10767   17.48251
       O   -11.71484   13.93849   17.96005
      H1   -10.97895   14.48963   17.62508
       H    -4.90806   18.65248   14.26374
       O    -4.78182   18.15330   15.07462
      H1    -5.65001   17.91675   15.39248
       H    -5.03776   12.33535   10.31054
       O    -4.13285   12.10819   10.51345
      H1    -4.02577   11.24074   10.02559
       H    -9.51906    8.11180   15.37530
       O    -9.25063    7.24464   15.78561
      H1   -10.03141    6.65850   15.67592
       H   -10.24133   15.71078    8.26286
       O   -10.35138   15.63401    7.31006
      H1    -9.48043   15.63274    6.93379
       H    -9.00744   10.10561   14.75239
       O    -9.89221    9.68760   14.78518
      H1   -10.38119   10.38592   15.30105
       H    -7.25774   15.19417   16.94501
       O    -6.33686   15.09083   17.24677
      H1    -5.73253   15.23812   16.49393
       H   -16.60691   14.59017   15.65127
       O   -15.95680   15.14692   16.04407
      H1   -16.45070   15.93911   16.21215
       H    -2.47054   16.62930   12.49526
       O    -1.83811   17.20658   12.90600
      H1    -1.02087   17.15153   12.31150
       H    -6.66862    8.79759   13.46348
       O    -6.86106    9.64606   12.92023
      H1    -5.98518   10.08798   12.93352
       H    -5.59304   19.45214   10.92174
       O    -5.96731   18.73723   10.42625
      H1    -5.22467   18.41474    9.83328
       H    -4.82755   15.80318   11.44300
       O    -4.32052   16.58716   11.36023
      H1    -4.21768   16.68623   10.40272
       H    -7.97600   17.72789   14.22540
       O    -7.80019   18.20294   15.00538
      H1    -8.64410   18.71916   15.15607
       H   -14.21867   12.25769   11.24280
       O   -14.71095   13.01288   11.70334
      H1   -13.94382   13.38679   12.22032
       H    -4.02672   16.59363   15.32747
       O    -3.83729   15.74273   15.78701
      H1    -3.60337   15.96036   16.70019
       H   -10.34615   18.82323    9.25822
       O   -10.18341   19.78796    9.15738
      H1    -9.29729   19.95782    9.51787
       H   -11.73138    9.25002   12.75294
       O   -11.22100    8.47993   12.41088
      H1   -10.34953    8.69334   12.68452
       H    -2.02793   12.67474   15.00229
       O    -2.87992   12.17302   15.07772
      H1    -3.46187   12.55636   15.70074
       H    -7.72358   17.83391   16.70459
       O    -7.80605   17.96371   17.73786
      H1    -7.01161   18.56343   17.82135
       H    -7.44418   12.94455    8.48437
       O    -7.45452   12.96320    9.45410
      H1    -7.59624   12.07779    9.73642
       H    -7.17623   14.62549    8.53549
       O    -7.33939   15.52864    8.31569
      H1    -8.14486   15.76481    8.84091
       H   -10.17220   11.84115    8.10907
       O    -9.80776   11.34307    7.35911
      H1   -10.10218   10.43126    7.46345
       H   -10.63757   18.07057   13.58667
       O   -10.53812   18.44946   12.69030
      H1   -10.97048   19.31198   12.79171
       H    -9.44404   12.82310   19.59781
       O    -8.66255   12.45383   19.07200
      H1    -8.65040   11.52460   19.31573
       H    -2.07941   15.78137   15.51466
       O    -1.16653   15.99529   15.35138
      H1    -1.15741   16.49834   14.48919
       H    -8.30648    9.66597   10.36320
       O    -9.27211    9.51990   10.50873
      H1    -9.49284    8.84705    9.89777
       H    -5.55981   10.23201   18.83644
       O    -4.66127   10.31724   18.44788
      H1    -4.74873   11.23953   18.02471
       H   -12.59144    9.03897   17.11466
       O   -12.12803    9.45407   17.83553
      H1   -11.62718    8.70461   18.22280
       H   -12.12084   13.06908    8.53274
       O   -11.16919   13.29226    8.53254
      H1   -11.13680   14.05642    7.95722

