159
frame 1 | Written by MDAnalysis XYZWriter (release 2.4.3)
       H     7.97019    5.11754   -8.91606
       O     8.86923    5.04474   -8.54920
      H1     8.84994    4.25578   -7.97106
       H     9.57358    7.40851  -11.20187
       O     9.65873    8.01550  -10.49759
      H1     9.96299    7.46150   -9.74861
       H    16.16039    8.23970   -5.97537
       O    15.56120    8.66690   -6.64840
      H1    14.67112    8.42567   -6.49988
       H    11.32221   10.71243  -14.71022
       O    11.49651   11.57620  -14.44767
      H1    12.35647   11.78627  -13.96282
       H    15.11202   14.63878  -15.57576
       O    15.28546   14.62599  -14.60923
      H1    14.93804   13.73238  -14.36883
       H     4.80842   11.85971  -11.28129
       O     4.77756   10.92918  -11.55301
      H1     3.83780   10.73889  -11.45630
       H    13.63171   12.08925  -10.75454
       O    13.98917   12.96733  -10.94345
      H1    13.43891   13.64882  -10.55750
       H    16.05845   12.99862  -11.07247
       O    16.97963   12.71618  -10.91858
      H1    17.09525   12.97860   -9.99160
       H    14.75709    9.42863   -8.50333
       O    14.51661    9.61054   -9.40208
      H1    13.73441    9.07891   -9.59665
       H    14.81815   11.66343   -8.85065
       O    15.08367   12.22937   -8.10474
      H1    14.99473   13.15411   -8.35322
       H    12.20529   14.31175   -8.97239
       O    12.57221   14.92593   -9.65036
      H1    11.97058   14.97112  -10.38478
       H    11.09816    8.33823  -15.84655
       O    12.00166    8.40101  -16.15396
      H1    11.99917    8.25663  -17.10644
       H    12.48109    5.02399  -14.85305
       O    12.68598    4.45535  -14.12776
      H1    12.97645    5.03811  -13.45204
       H    10.94088   12.67310   -9.83900
       O    10.15317   13.34583   -9.91352
      H1    10.05912   13.56847  -10.84332
       H    12.03365   10.67610   -9.98034
       O    12.08277   11.46400   -9.35630
      H1    11.46400   11.20129   -8.64325
       H     4.06162    7.87898  -11.58489
       O     4.97947    7.91115  -11.25863
      H1     5.12857    8.77865  -11.05380
       H    10.50322   16.24676   -8.47541
       O     9.62446   16.02557   -8.76726
      H1     9.70904   15.37507   -9.49943
       H     7.78270    9.91742  -16.95700
       O     8.67629   10.25980  -16.74516
      H1     8.89479   10.74014  -17.55928
       H    12.07767    9.60304  -12.21403
       O    11.59332    9.81499  -11.40358
      H1    11.00358    9.10812  -11.16029
       H     6.10534    8.32605  -14.38791
       O     6.67442    7.93127  -15.09528
      H1     6.57221    8.59361  -15.82483
       H     9.53426    5.88510  -13.49680
       O     9.69247    6.62005  -12.90504
      H1     9.58926    7.39367  -13.47858
       H     8.27463    4.61047  -14.98645
       O     9.10232    4.57256  -14.51877
      H1     9.41401    3.69928  -14.65161
       H    13.93659    9.81433  -15.49119
       O    14.72887   10.42133  -15.50774
      H1    14.92844   10.43257  -16.43205
       H     6.49197    6.40733   -9.24070
       O     6.66662    5.64597   -9.87944
      H1     6.90000    6.03138  -10.76815
       H    10.08116    8.08858   -7.46311
       O    10.47862    7.36023   -7.97949
      H1     9.86392    6.59786   -7.93491
       H    14.71257   11.73487  -13.92126
       O    14.17050   12.38957  -13.54822
      H1    14.30927   12.39955  -12.61320
       H    11.60736   10.17935   -6.19426
       O    11.10787   10.56686   -6.95940
      H1    10.43220   11.06564   -6.46156
       H     8.94500   12.88278   -5.04976
       O     9.87426   12.63572   -5.33324
      H1    10.14661   13.40288   -5.83601
       H     8.24946   12.85057   -9.64861
       O     7.41607   12.38191   -9.93261
      H1     6.91107   13.00070  -10.48079
       H     9.07745    3.86253  -11.89474
       O     8.75320    3.21127  -11.26767
      H1     8.74381    3.73480  -10.40186
       H     8.53804    7.77578   -5.71041
       O     7.96230    8.40748   -6.17582
      H1     7.38753    7.92954   -6.77003
       H    13.01827    8.27368  -13.11697
       O    13.28910    9.16892  -13.27946
      H1    14.24768    9.08027  -13.22339
       H    10.35692   12.15741  -13.38496
       O     9.58177   12.27341  -12.78113
      H1     9.35609   11.41970  -12.34223
       H     5.27996    6.61413   -7.83777
       O     5.83845    7.41755   -7.80780
      H1     5.20834    8.20134   -7.73953
       H     6.19355   10.55643   -9.00055
       O     5.28562   10.34267   -8.64835
      H1     4.76570   10.35779   -9.48947
       H    11.50269    6.56615  -12.60773
       O    12.45038    6.52000  -12.38533
      H1    12.68201    6.99071  -11.56195
       H     8.95870    9.36666  -15.03029
       O     9.52161    9.29425  -14.24931
      H1     9.00734    9.60300  -13.51655
       H     8.58139    9.57891  -10.90053
       O     8.21669   10.24289  -11.51822
      H1     7.88097   10.99518  -10.99188
       H    17.02134    7.77576   -9.80600
       O    17.05260    8.46767  -10.50889
      H1    16.16336    8.86882  -10.28006
       H    14.87916   11.57615   -4.91958
       O    14.14158   11.69014   -5.53030
      H1    14.56836   11.91812   -6.37337
       H    13.73229    9.88600   -5.78658
       O    13.09701    9.17221   -5.76609
      H1    12.78993    9.30360   -4.84517
       H     6.49762   10.45121  -14.02889
       O     5.65493   10.02232  -13.86704
      H1     5.29281   10.48839  -13.06197
       H    14.51550    6.76460  -16.67887
       O    15.21770    7.05121  -16.05677
      H1    14.75574    7.68049  -15.48807
       H     7.76535    6.36898  -12.78123
       O     6.86899    6.11278  -12.50432
      H1     6.42498    6.95544  -12.20648
       H    10.77925   16.65324  -11.44362
       O    11.00268   15.81737  -11.90462
      H1    11.76372   16.03635  -12.46926
       H    10.65918   13.14808  -17.06578
       O    11.53980   12.97935  -16.76099
      H1    11.49150   12.53843  -15.87539
       H    16.79043    6.91715  -11.66965
       O    16.76437    5.98284  -11.92430
      H1    16.93969    5.88981  -12.82170
       H    12.62706    4.93616   -7.86322
       O    11.88855    4.39913   -7.56950
      H1    11.52228    4.17588   -8.40869
       H    12.14026    7.40288   -9.18147
       O    12.91360    7.32310   -9.78735
      H1    13.55700    6.85447   -9.28002
       H     8.26090   12.07345  -13.99858
       O     7.62274   11.80606  -14.69844
      H1     8.18447   11.46900  -15.38736
       H    17.15563    9.17847  -13.74098
       O    16.19864    9.14358  -13.68056
      H1    15.89038    9.64594  -14.44990
       H    15.61821    6.96477   -7.55596
       O    15.07162    6.35866   -8.14364
      H1    15.57674    5.53896   -8.20322
       H     9.95969    6.05801   -4.79118
       O    10.08121    7.01266   -4.88427
      H1    10.50060    7.14937   -5.77565

