159
frame 11 | Written by MDAnalysis XYZWriter (release 2.4.3)
       H     7.95038  -12.30151    6.76120
       O     8.18939  -13.11023    7.15864
      H1     7.45271  -13.52529    7.68897
       H     6.08620   -8.63785    1.70271
       O     5.87189   -7.92839    1.06144
      H1     5.23755   -8.41363    0.43790
       H     5.39130   -8.19908    9.43850
       O     6.09573   -8.31094   10.08242
      H1     6.58319   -9.07461    9.66498
       H     2.58271  -10.82343    0.64864
       O     2.14398  -10.96279   -0.21146
      H1     2.77797  -10.54468   -0.79977
       H    10.55307  -14.58584    1.24266
       O    11.04822  -15.18063    1.82382
      H1    11.63796  -15.74162    1.32010
       H     8.49583   -8.94241    7.10318
       O     8.15330   -8.87051    6.15824
      H1     8.75896   -8.42339    5.60579
       H     7.52281  -11.38014   10.39738
       O     7.45342  -10.80715    9.54880
      H1     8.41767  -10.56840    9.44088
       H     1.37721  -13.97143    7.52898
       O     1.96983  -13.60910    8.19266
      H1     2.41280  -12.82236    7.79852
       H     5.15332   -8.42025    3.53888
       O     4.75011   -7.61140    3.83350
      H1     5.45808   -6.94550    3.86894
       H     5.24220   -7.95226    5.47505
       O     5.68144   -8.13540    6.30998
      H1     6.58717   -8.42991    6.00947
       H     8.92012  -14.43312    6.49855
       O     9.29639  -15.16733    5.96889
      H1     9.07065  -14.83528    5.08269
       H     2.54754  -15.04427    2.07538
       O     2.82173  -15.73136    2.69867
      H1     3.70123  -15.94945    2.30970
       H     2.90847   -5.62034    1.92117
       O     2.69533   -6.57264    1.74417
      H1     3.40158   -7.10650    2.12341
       H     7.04210   -6.58864   -0.08042
       O     7.29312   -6.01884   -0.83559
      H1     8.02190   -5.47657   -0.49420
       H    12.64397   -8.74511    4.11087
       O    12.41327   -9.63079    4.39719
      H1    12.77663   -9.53003    5.31326
       H     6.76070  -11.31402    1.96068
       O     7.33331  -11.94458    1.50394
      H1     8.07592  -11.35815    1.26195
       H     3.12403  -11.60632    3.24466
       O     3.23517  -10.76517    2.79751
      H1     2.36953  -10.31266    3.02269
       H     7.36254  -15.59646    1.84227
       O     8.22202  -16.00425    1.76490
      H1     8.88473  -15.42072    2.15604
       H     6.03795   -4.70424    4.44834
       O     6.56777   -5.21409    3.87000
      H1     6.58891   -4.69190    3.06309
       H    11.78334  -12.55565    3.35552
       O    11.05625  -12.01557    3.68249
      H1    11.37666  -11.23482    4.18238
       H     9.40097   -9.77496   -0.62569
       O     9.30277  -10.76138   -0.43077
      H1     9.39787  -11.22755   -1.30865
       H    -1.01802  -13.08724    4.71693
       O    -0.57414  -12.45427    5.26185
      H1     0.26736  -12.16432    4.97254
       H     4.49817  -17.50162    0.67988
       O     4.76591  -16.61929    1.01022
      H1     4.43632  -15.97945    0.31882
       H    11.65187   -5.98331    2.46290
       O    10.96873   -6.66247    2.27195
      H1    11.49115   -7.57510    2.20370
       H     6.21555  -11.81237    8.81301
       O     5.52807  -12.51868    8.80410
      H1     5.84664  -13.34110    9.18409
       H     6.06080  -12.99895   -1.20755
       O     5.57743  -12.29299   -0.75309
      H1     6.20458  -12.07965    0.02776
       H     7.01081   -6.66764    6.74806
       O     7.72469   -5.99967    6.78489
      H1     8.54856   -6.45166    6.83573
       H     7.97609  -10.42497    5.42338
       O     7.41748  -11.23680    5.22888
      H1     7.95558  -11.92355    4.79068
       H     8.37500  -13.28666    3.01483
       O     8.57310  -13.52105    3.90030
      H1     9.43405  -13.09693    4.01777
       H     1.16252   -7.89605    0.12228
       O     0.48118   -8.52066   -0.04901
      H1     0.99583   -9.36910   -0.12491
       H    10.28049   -5.29308   -0.23110
       O     9.53067   -4.94689    0.28629
      H1     9.52460   -5.60435    1.03016
       H     5.72046  -12.53428    5.69364
       O     4.88072  -12.95173    5.95338
      H1     4.98128  -13.09598    6.89077
       H     8.13728   -6.05773    3.90829
       O     8.93903   -6.65861    4.09082
      H1     9.65000   -6.51000    3.43016
       H     2.70037  -13.77555   -1.21146
       O     3.15896  -14.02889   -0.41401
      H1     4.01226  -13.60789   -0.51418
       H     4.39737   -8.34252    7.61496
       O     3.83363   -8.47432    8.39523
      H1     3.24043   -7.68414    8.32860
       H     0.80694   -8.86453    6.54953
       O     0.88953   -9.68719    6.06583
      H1     1.61864  -10.18437    6.48846
       H     0.87352  -12.35308    1.57477
       O     1.43750  -13.20040    1.70543
      H1     2.06510  -13.15322    0.96150
       H     3.61699  -11.60383    6.61406
       O     2.90392  -11.18801    7.18260
      H1     3.32749  -10.56695    7.77429
       H     6.63219  -17.62988    4.50678
       O     6.03793  -16.90765    4.33507
      H1     6.00424  -16.43791    5.13136
       H     4.87701  -10.40082    3.13925
       O     5.89139  -10.30702    3.18966
      H1     6.19902  -10.65427    4.04934
       H     5.23887   -9.43990   -1.46253
       O     4.45445   -9.06177   -1.04555
      H1     4.43520   -8.13407   -1.22549
       H    11.39157   -9.82126    0.87045
       O    11.36467   -9.33234    1.71250
      H1    11.02201  -10.05516    2.29209
       H     0.84651   -9.81483    4.30965
       O     0.79636   -9.76948    3.30304
      H1     0.14248  -10.42329    3.04994
       H     3.43927  -13.37058    4.69286
       O     2.59919  -12.86632    4.43485
      H1     2.30164  -13.37443    3.66568
       H    10.43576   -6.23887    7.41309
       O    10.12712   -7.17254    7.41868
      H1    10.33965   -7.58111    8.28034
       H     6.98781  -15.76423    8.16947
       O     7.11547  -14.95554    8.76671
      H1     7.78737  -15.23193    9.41522
       H     9.80143   -7.35160   -1.21364
       O     9.20853   -8.01635   -0.81669
      H1     8.34542   -7.65551   -1.05613
       H     9.31971  -12.85176    0.35277
       O     9.64075  -13.74557    0.20945
      H1    10.32461  -13.60048   -0.49870
       H     2.79241  -12.20055   10.84685
       O     3.74098  -12.12315   10.90816
      H1     4.00957  -12.21559    9.99693
       H     8.13278  -16.29901    6.36719
       O     7.45965  -16.83801    6.79707
      H1     7.22884  -17.57385    6.19812
       H     9.98900  -12.53201    7.17168
       O    10.75445  -11.93538    6.99732
      H1    10.67934  -11.89687    6.05049
       H    10.02237   -9.99615    9.30715
       O     9.70299   -9.79400    8.43018
      H1    10.24740  -10.39215    7.87515
       H     6.90286  -10.98958   -1.79619
       O     6.83273  -10.41799   -2.50930
      H1     6.21063  -10.74065   -3.11572

