159
frame 11 | Written by MDAnalysis XYZWriter (release 2.4.3)
       H     8.31442    5.45583  -13.97866
       O     7.74558    5.81166  -13.24527
      H1     8.21361    6.64721  -13.20613
       H     8.65265   -4.53389  -15.16860
       O     8.04370   -3.96524  -15.71964
      H1     7.36813   -3.58221  -15.18908
       H    13.70547    0.96049  -14.91683
       O    14.27830    0.43998  -15.50833
      H1    15.18688    0.78519  -15.37260
       H    13.91858    1.83657  -18.69354
       O    14.35406    2.01716  -17.81066
      H1    14.22765    1.22354  -17.21514
       H     7.91904    1.38251  -16.99761
       O     7.06597    1.24888  -17.42375
      H1     7.23235    0.48238  -17.91800
       H     7.60237   -6.03025  -18.69895
       O     6.97163   -6.52579  -19.21990
      H1     6.84940   -6.06584  -20.04901
       H    10.91119    0.28847  -17.82195
       O    11.12943   -0.15915  -16.96698
      H1    10.64152   -1.00234  -16.92046
       H     5.94722   -5.84956  -17.83520
       O     5.27277   -5.36514  -17.29424
      H1     5.49939   -5.62773  -16.36399
       H    -0.18031    5.15338  -17.20272
       O     0.64341    5.33848  -17.72006
      H1     0.85857    6.26646  -17.34270
       H     6.31130    8.85648  -16.39894
       O     6.51190    8.25895  -15.64360
      H1     6.21177    8.74449  -14.84411
       H    12.34392    7.56221  -14.76340
       O    12.15578    7.07566  -15.53236
      H1    12.06481    6.17134  -15.22936
       H     4.77951   -0.13271   -9.15813
       O     5.44775    0.14037   -9.75320
      H1     5.03967    0.81428  -10.39302
       H     4.82886    2.78458  -14.27699
       O     4.31024    1.95216  -14.24732
      H1     4.90021    1.20388  -14.42500
       H     8.36073    4.87762  -15.96929
       O     9.18107    5.25139  -15.68138
      H1     9.14782    6.23037  -15.64861
       H     9.85314    0.97822  -15.98314
       O     9.11090    1.48422  -15.67987
      H1     9.09480    1.36436  -14.73990
       H    14.38085   -1.49935  -17.31274
       O    13.76744   -1.01747  -17.93038
      H1    12.98265   -0.70973  -17.42890
       H     2.48863   -0.59531  -13.60242
       O     2.15725   -0.46052  -14.48438
      H1     2.56058    0.33063  -14.81042
       H    10.39204   -1.99764  -13.04627
       O    10.93660   -2.52323  -13.69111
      H1    11.83018   -2.23659  -13.61505
       H     4.48693    5.21739  -14.33746
       O     5.33578    4.70321  -14.42445
      H1     5.97508    5.15513  -13.84469
       H     6.54026   -3.28060  -13.02824
       O     6.54716   -2.57319  -13.69647
      H1     5.67956   -2.64168  -14.22743
       H     3.34424    6.21677  -15.41218
       O     2.82280    5.93786  -14.60556
      H1     2.37236    5.09061  -14.86684
       H    11.76559    7.69907  -18.47473
       O    10.90174    7.31721  -18.35650
      H1    10.82663    7.04457  -17.41952
       H    10.32725    4.20828  -16.90704
       O    10.91837    3.73704  -17.57994
      H1    10.87999    4.26179  -18.40643
       H     9.10794    2.94713  -10.66712
       O     9.13656    3.54880  -11.44492
      H1     8.43842    4.15381  -11.38178
       H     6.64786   -0.74675  -15.04662
       O     5.96391   -0.21009  -15.46895
      H1     6.32067    0.54334  -15.95480
       H     4.40478    2.05435  -12.34841
       O     4.18257    2.13627  -11.39904
      H1     4.11898    3.04924  -11.20430
       H     6.24500    4.77499  -15.86571
       O     6.72617    4.34264  -16.57426
      H1     6.43556    3.43014  -16.48821
       H    13.18274    2.63270  -14.51271
       O    12.96921    1.97722  -13.82583
      H1    13.77479    1.94564  -13.34552
       H     0.14285    0.19991  -18.67880
       O     0.98410    0.26599  -18.22899
      H1     0.91619   -0.22604  -17.44136
       H     8.09794    8.07163  -15.86820
       O     9.07596    8.03992  -15.96873
      H1     9.31480    8.70163  -16.63251
       H     8.37880    0.90778  -12.87547
       O     7.79550    1.59787  -13.16057
      H1     8.22692    2.44553  -12.85510
       H    13.84949    3.29906  -16.49185
       O    13.29169    3.63017  -15.80244
      H1    12.43448    3.38143  -16.18291
       H    10.28178   -0.05924  -11.40981
       O     9.66696   -0.18849  -12.20057
      H1     8.83610   -0.55345  -11.85087
       H     0.29414    1.45290  -15.27708
       O    -0.68471    1.27394  -15.40207
      H1    -1.07269    1.22650  -14.50173
       H     1.26714   -1.24356  -15.68111
       O     0.97011   -1.96405  -16.24394
      H1     0.09450   -2.26266  -15.95126
       H    10.60089   -2.76399  -15.37194
       O    10.50732   -3.01372  -16.26858
      H1     9.62432   -3.40001  -16.38527
       H     3.90022    4.41097  -17.75998
       O     3.09481    3.93074  -18.00417
      H1     2.34464    4.58808  -17.88587
       H     7.10346    5.48117  -19.15456
       O     6.37923    5.82364  -18.60212
      H1     6.62919    5.33828  -17.81269
       H     4.39680   -4.35834  -14.39078
       O     5.09247   -5.02778  -14.52377
      H1     4.61194   -5.84307  -14.53136
       H     5.37596   -2.84678  -18.66712
       O     5.81856   -2.82538  -17.81467
      H1     5.53565   -3.64129  -17.38789
       H    10.26533   -5.58007  -13.59813
       O     9.39176   -5.70225  -14.12294
      H1     8.80749   -5.16874  -13.54492
       H    10.96451    2.32869  -18.80471
       O    10.81357    1.47006  -19.20708
      H1    11.66112    1.14378  -19.56488
       H     6.56357    8.71563  -18.32101
       O     5.84195    9.32602  -18.06791
      H1     6.01289   10.12207  -18.63049
       H     2.73788    2.31201  -15.35304
       O     1.80672    2.19280  -15.61049
      H1     1.78434    2.23969  -16.55862
       H    11.90106    2.52408  -12.51259
       O    11.66010    2.82193  -11.62779
      H1    10.71910    3.16026  -11.74704
       H     7.95171    7.06636  -18.71214
       O     8.25662    7.99862  -18.79323
      H1     9.23359    7.82738  -18.63307
       H     3.27402   -4.67946  -16.49479
       O     2.45638   -4.55590  -16.01652
      H1     1.96422   -3.76972  -16.33506
       H     6.64576   -0.78638  -10.77058
       O     7.29474   -1.30862  -11.22550
      H1     6.96514   -1.53490  -12.07173
       H     3.00611   -2.19226  -14.34530
       O     3.60526   -2.80621  -13.93503
      H1     3.62675   -2.45100  -12.99150
       H    11.71778   -3.52128  -17.57513
       O    12.09917   -3.24495  -18.41173
      H1    12.62833   -2.46488  -18.13487
       H     4.13920    7.08471  -17.96488
       O     3.98817    6.94771  -17.01211
      H1     4.89801    6.89286  -16.79743
       H     8.24623   -4.37378  -17.45631
       O     8.56756   -4.66427  -18.32473
      H1     9.15806   -4.01262  -18.65977
       H     7.05563   -1.84977  -18.44145
       O     7.46672   -1.10601  -18.92455
      H1     8.36616   -1.36176  -19.14630

