159
frame 0 | Written by MDAnalysis XYZWriter (release 2.4.3)
       H   -18.51916   -0.53497   -4.81246
       O   -18.40683    0.42853   -4.87816
      H1   -17.93045    0.59171   -4.06412
       H   -15.65887    0.50158   -6.25144
       O   -15.08761   -0.20930   -6.62470
      H1   -14.55079    0.16609   -7.28327
       H   -16.57198   -4.89390   -0.94643
       O   -16.92451   -5.26730   -1.78488
      H1   -16.42922   -5.03200   -2.50549
       H   -12.53385   -0.39926    5.52404
       O   -13.43936   -0.40067    5.86317
      H1   -13.89144    0.35281    5.45272
       H   -11.82773    4.71052   -4.70107
       O   -11.02806    5.05277   -5.17922
      H1   -10.83154    5.89777   -4.77427
       H   -18.80871    2.96951    3.55083
       O   -18.18971    3.27135    2.87230
      H1   -18.26946    2.79705    2.03678
       H    -9.76672   -1.89735    1.84934
       O    -8.83416   -2.07119    2.09226
      H1    -8.52570   -1.37350    2.68874
       H   -19.76133   -1.54819   -0.61515
       O   -19.01872   -1.94758   -0.09093
      H1   -19.15000   -1.62010    0.83153
       H   -12.52027   -2.82726   -1.63721
       O   -12.44168   -1.93734   -1.25625
      H1   -11.99123   -2.19004   -0.43089
       H   -15.81512    2.14428    4.65018
       O   -16.12531    1.39361    5.10707
      H1   -16.55605    1.71294    5.92405
       H   -14.85944   -3.23187   -3.63781
       O   -15.07392   -2.46083   -3.06084
      H1   -14.38602   -1.79611   -3.29291
       H   -11.98975    0.47552    2.41673
       O   -11.44300    1.30165    2.43411
      H1   -10.85653    1.05868    1.69604
       H   -13.66976   -0.99432    3.64388
       O   -13.41377   -0.97456    2.71581
      H1   -14.21349   -0.77895    2.21434
       H   -10.79483   -1.68987    4.56123
       O   -10.98267   -0.77672    4.65791
      H1   -10.36129   -0.35708    4.05315
       H   -14.32098    0.98307   -0.37444
       O   -14.96227    1.34550    0.35652
      H1   -15.52426    0.58632    0.63170
       H   -16.11639    5.22729   -3.76219
       O   -16.54589    5.81718   -4.41709
      H1   -15.89098    6.53780   -4.61637
       H   -18.08219   -2.59669   -5.59136
       O   -18.18876   -2.38285   -4.66882
      H1   -17.27767   -2.54703   -4.29774
       H   -14.86040   -4.02135    4.20828
       O   -15.46232   -3.52047    3.62623
      H1   -15.19041   -3.73337    2.71168
       H   -16.82135    2.84123   -5.76200
       O   -16.05517    2.30187   -5.56050
      H1   -15.31465    2.87410   -5.86811
       H   -12.23704    7.61502    4.11316
       O   -12.64553    6.68733    3.94157
      H1   -13.14190    6.58061    4.76639
       H   -13.31204    0.29344   -3.65949
       O   -13.40132   -0.55955   -4.13113
      H1   -13.92650   -0.33485   -4.90471
       H   -18.00502    6.83423    1.78631
       O   -17.57091    7.56176    2.19651
      H1   -16.65334    7.29610    2.08619
       H   -12.98116    4.11427    1.04808
       O   -13.85388    3.75924    0.87304
      H1   -13.79399    2.81200    0.89522
       H   -10.27122    2.00856   -1.43669
       O   -10.81324    2.59111   -2.04004
      H1   -10.87694    2.17686   -2.93030
       H   -17.68829    5.24640   -0.45751
       O   -17.12360    5.33158   -1.24790
      H1   -17.68076    5.88255   -1.81831
       H   -18.93856    3.43154   -3.97493
       O   -18.95050    3.02651   -3.07089
      H1   -18.01969    2.66466   -2.96149
       H   -11.63082    4.97902    2.65424
       O   -11.46612    4.22371    2.06321
      H1   -11.78450    3.44049    2.56522
       H   -11.37642   -3.32459    1.37335
       O   -11.42517   -2.34920    1.33412
      H1   -12.17186   -2.14370    1.93484
       H   -17.76025   -4.27705    4.20719
       O   -18.07859   -3.97248    3.33748
      H1   -17.15950   -3.88063    2.98037
       H    -8.06625    4.45621   -2.43165
       O    -9.02457    4.74274   -2.56778
      H1    -9.53750    3.87104   -2.67666
       H   -16.47007   -0.48313    5.06612
       O   -16.71599   -1.40669    5.13026
      H1   -16.01987   -1.83669    4.62829
       H   -16.35111    3.64554    3.25648
       O   -15.39016    3.62168    3.54866
      H1   -14.89752    3.71295    2.72938
       H   -16.98370   -1.09069    2.19796
       O   -16.13591   -0.96394    1.76515
      H1   -16.15085   -1.30387    0.84117
       H   -13.18912    1.83733    7.26112
       O   -12.55406    2.38264    6.81482
      H1   -13.15676    3.05075    6.42476
       H   -13.17035    5.58690   -1.61970
       O   -12.36982    5.27136   -2.14338
      H1   -12.21807    4.38240   -1.75188
       H   -12.82996    3.07234   -5.77784
       O   -13.10745    3.24203   -4.85949
      H1   -13.74508    3.92480   -4.94992
       H   -15.68566   -2.11785   -1.48932
       O   -16.11116   -1.94805   -0.63869
      H1   -17.05864   -2.03480   -0.78650
       H   -12.12188   -5.44242   -2.01973
       O   -12.45936   -4.56368   -2.31538
      H1   -11.82076   -4.30381   -3.00224
       H   -13.80135    6.93370    2.27753
       O   -14.66027    6.94546    1.88112
      H1   -14.55207    6.58585    1.03236
       H   -14.69220    4.56276    6.48987
       O   -14.10322    4.38917    5.71588
      H1   -14.70049    4.21367    4.96816
       H    -9.02784    4.66238    3.50888
       O    -8.51821    3.94158    3.14617
      H1    -9.09896    3.15618    3.20331
       H   -12.26953    1.38427   -1.54223
       O   -13.03001    0.77752   -1.54481
      H1   -12.73102   -0.08650   -1.55200
       H   -10.42077   -1.97665   -2.11946
       O    -9.50629   -2.44720   -2.09928
      H1    -9.54384   -3.31834   -1.61777
       H   -14.40447    2.56636   -2.18568
       O   -14.96584    2.95001   -2.84752
      H1   -14.75267    2.50575   -3.67067
       H   -17.52321    3.44069   -0.41860
       O   -17.56759    2.66037    0.15421
      H1   -16.69569    2.26701   -0.01719
       H   -16.46118    0.85766   -1.88176
       O   -16.94153    1.27639   -2.61707
      H1   -16.38578    1.99394   -2.87309
       H   -19.70961    5.43192    0.87942
       O   -18.76029    5.35934    1.05411
      H1   -18.75721    4.67004    1.74150
       H   -11.62313   -0.05763   -4.23710
       O   -10.84230    0.44433   -4.48660
      H1   -10.44380    0.05077   -5.29393
       H   -11.40292    6.38243   -1.22111
       O   -10.83134    7.08431   -0.83296
      H1   -10.00204    6.60182   -0.44055
       H   -14.38675    4.85722   -0.14376
       O   -14.61676    5.66559   -0.63407
      H1   -15.44733    5.46936   -1.09263
       H   -10.21669    4.51057    0.49630
       O    -9.41729    4.89970    0.00790
      H1    -9.48724    4.84382   -0.95439
       H   -15.04743   -4.96766    0.84554
       O   -15.79785   -4.39666    0.89611
      H1   -15.46011   -3.55884    0.58343
       H    -9.13730    0.22332   -0.40536
       O    -9.44587    1.08136   -0.16138
      H1    -8.74089    1.35971    0.43950

