159
frame 11 | Written by MDAnalysis XYZWriter (release 2.4.3)
       H    11.86173   -7.90192    9.73896
       O    10.96575   -7.60419    9.98376
      H1    11.07442   -6.73614   10.42194
       H     9.28104   -3.05975   16.55243
       O     9.91249   -2.91155   15.81929
      H1    10.48728   -3.66740   15.78090
       H     5.72401    2.71023   11.89426
       O     5.41209    1.83417   11.68201
      H1     5.15880    1.39821   12.48307
       H     6.92337    3.51825    4.52790
       O     6.81396    2.73250    5.03994
      H1     7.60310    2.55584    5.55173
       H     2.98531   -1.84106   11.17108
       O     3.92193   -1.75170   11.47126
      H1     4.38960   -1.28515   10.77363
       H     8.73192   -4.28973   12.14556
       O     8.85108   -4.20688   11.16161
      H1     8.29894   -4.90349   10.76440
       H    14.26109   -7.59148    9.71792
       O    13.57275   -7.49723    9.05126
      H1    13.31220   -6.54924    8.94584
       H     4.82187   -4.43636    7.83748
       O     5.27975   -3.94715    8.54814
      H1     5.76067   -4.57636    9.11419
       H    10.00865   -4.99793    4.15944
       O    10.08608   -4.03188    4.12154
      H1    11.02956   -3.82331    3.98304
       H    10.72376   -4.33341    5.97934
       O    10.57698   -4.52563    6.96605
      H1    11.45283   -4.67178    7.37526
       H     5.98162   -1.74299    5.91527
       O     5.17326   -1.25083    5.85372
      H1     5.17386   -0.70501    6.66013
       H    13.78386    1.86079   13.03288
       O    12.95567    2.31508   12.91598
      H1    12.43032    1.63699   12.46440
       H     5.64288    3.28256    6.35463
       O     5.04342    3.30340    7.10160
      H1     5.46628    3.93378    7.64791
       H    12.19474    4.72641    6.58146
       O    11.45756    4.49428    7.19110
      H1    10.96674    3.80790    6.71089
       H     6.03795   -4.70424    4.44834
       O     6.56777   -5.21409    3.87000
      H1     6.58891   -4.69190    3.06309
       H     9.11277   -2.35246    4.10869
       O     9.04316   -1.45804    3.79692
      H1     8.17504   -1.42831    3.43861
       H    14.61397   -1.59774   10.81024
       O    13.75335   -1.25340   11.18876
      H1    13.57141   -0.49154   10.61084
       H     5.57103   -4.86366   15.29507
       O     5.83786   -3.93672   15.18781
      H1     6.77425   -3.96391   14.74252
       H    15.85382    0.38912   13.20940
       O    14.90760    0.39322   13.27168
      H1    14.57725   -0.21946   12.56682
       H     6.20019   -0.75938   17.14719
       O     6.67268   -1.24561   16.42883
      H1     6.02332   -1.70794   15.89972
       H     7.01081   -6.66764    6.74806
       O     7.72469   -5.99967    6.78489
      H1     8.54856   -6.45166    6.83573
       H     1.97834   -1.13578    8.96351
       O     2.01548   -0.64037    9.77907
      H1     1.85858    0.26372    9.60558
       H     6.76253   -6.59757    9.96691
       O     7.07661   -5.69476    9.79475
      H1     7.58933   -5.82036    8.99055
       H    13.71924   -2.84177    6.51970
       O    14.50819   -3.13491    6.04189
      H1    14.52578   -2.47514    5.32264
       H     9.26246    2.76045    7.13175
       O     9.61205    2.68080    6.24326
      H1    10.07097    1.85587    6.16379
       H     4.91902   -0.94145   12.92992
       O     5.43876   -0.25372   13.45124
      H1     5.07344   -0.39926   14.33927
       H     3.12155   -5.01142   11.05341
       O     2.16304   -5.19156   10.77063
      H1     1.66621   -4.50461   11.19890
       H    10.57638   -0.29650   12.03150
       O    10.80422   -0.32950   11.09731
      H1    10.09672   -0.80382   10.69022
       H     8.97736   -1.84710    8.92453
       O     8.69238   -1.68297    9.86198
      H1     8.70504   -2.56728   10.32969
       H     6.63602   -0.49877    9.64567
       O     5.73265   -0.16335    9.74938
      H1     5.71724    0.58948   10.35864
       H     8.44059   -5.41176   14.31810
       O     8.37612   -4.54392   13.91236
      H1     8.87163   -3.97835   14.55908
       H     4.42571   -3.34153   11.65178
       O     4.75552   -4.23700   11.59059
      H1     5.61592   -4.16987   11.23446
       H     5.05050   -6.76712   12.20462
       O     4.88275   -7.16702   13.06376
      H1     4.44928   -8.03121   12.88998
       H     9.98245   -2.71490    7.20975
       O     9.65102   -1.79385    7.23404
      H1     8.88124   -1.83769    6.68098
       H    12.85137   -2.00183    8.46767
       O    12.46526   -1.28844    7.82553
      H1    11.56257   -1.44025    7.89970
       H     3.37366   -1.04159    7.72115
       O     3.04953   -1.93767    7.74271
      H1     3.69658   -2.36335    8.33149
       H     3.82163   -4.14104    4.98940
       O     4.31229   -3.58954    4.32357
      H1     4.61438   -2.82954    4.84453
       H     4.37998   -3.12656   14.79152
       O     3.60462   -2.55747   14.85494
      H1     3.56530   -2.18517   13.93570
       H     7.02744    0.40953   14.01700
       O     7.68691    0.77362   14.64901
      H1     7.55622    0.24759   15.47381
       H    13.00246    4.69013    9.69953
       O    12.33251    3.94799    9.83471
      H1    11.80169    4.08612    9.03573
       H    12.82166   -3.20540   14.30952
       O    13.29434   -3.96616   14.74870
      H1    13.45328   -3.65377   15.67521
       H    10.43576   -6.23887    7.41309
       O    10.12712   -7.17254    7.41868
      H1    10.33965   -7.58111    8.28034
       H     6.59221   -3.17437    7.50468
       O     7.11724   -3.33225    6.66246
      H1     7.37537   -4.30088    6.62985
       H    12.36605    1.79655    3.48111
       O    12.67445    1.03061    3.94174
      H1    11.91651    0.76499    4.46873
       H    12.28795   -4.41749    9.50139
       O    12.74591   -4.38712    8.66035
      H1    13.75101   -4.48288    8.89389
       H     4.75478    0.46779    8.62153
       O     4.10156    0.74798    7.92991
      H1     4.38353    1.54297    7.52782
       H    12.62045    1.86868    9.78768
       O    13.13362    1.17957    9.37645
      H1    12.67596    0.55998    8.79183
       H     9.43398    0.61813   14.36819
       O    10.36800    0.57015   14.07092
      H1    10.67441    1.41627   14.40483
       H     8.55728    2.52000    9.63616
       O     8.61920    1.76257    9.09730
      H1     9.00811    1.06715    9.60359
       H    10.45451   -4.72354   10.90697
       O    11.42842   -4.90365   10.95013
      H1    11.67007   -4.79877   11.86905
       H    11.63800   -1.25178   13.90614
       O    11.79665   -2.14040   13.55734
      H1    12.14394   -1.91839   12.71412
       H    10.63254   -0.56566    5.94509
       O    10.58295    0.24160    5.39172
      H1     9.85145   -0.05890    4.80696
       H     7.90754    4.75490    9.76473
       O     8.57103    4.23460   10.23012
      H1     8.06812    4.17825   11.03516

