159
frame 5 | Written by MDAnalysis XYZWriter (release 2.4.3)
       H   -15.43180   -5.68822    9.89109
       O   -16.06982   -6.41615    9.89469
      H1   -16.97549   -5.95128    9.78175
       H   -16.57993   -4.87828   -2.20340
       O   -17.12123   -4.43036   -1.55740
      H1   -17.82665   -3.99924   -2.08804
       H   -13.14085    0.13280    4.05600
       O   -14.08506    0.10287    4.17674
      H1   -14.29254    0.88754    4.63049
       H   -15.99829   -8.52016   -2.80774
       O   -15.50437   -7.91319   -2.17695
      H1   -14.98059   -7.34571   -2.81989
       H   -15.34724   -8.71786    0.77871
       O   -15.22022   -7.85079    0.51908
      H1   -15.07806   -7.92781   -0.42035
       H    -7.59914   -5.91086    6.98598
       O    -7.69558   -4.98105    7.17591
      H1    -7.08501   -4.44196    6.71678
       H    -9.70121   -1.41090    2.70779
       O    -8.83040   -1.76455    2.86954
      H1    -8.27095   -1.03857    3.15184
       H   -17.60601   -4.86108    0.36664
       O   -18.05018   -5.09275    1.18931
      H1   -18.84138   -4.49303    1.18249
       H   -13.19699   -7.45709    8.88483
       O   -13.77506   -8.10095    9.32697
      H1   -14.48727   -7.48448    9.59162
       H   -10.20247   -9.70339    2.61382
       O   -10.70268   -9.48762    3.43372
      H1   -10.82921  -10.40866    3.80540
       H   -13.26887   -3.72233   -1.70683
       O   -12.40321   -4.01945   -1.53008
      H1   -11.92613   -3.31362   -1.01359
       H   -10.21962   -5.23252    3.61901
       O    -9.82278   -5.32009    4.47210
      H1    -8.86507   -5.27696    4.35956
       H   -10.34070   -4.64195    9.07278
       O    -9.64661   -5.28856    9.14260
      H1    -8.96787   -5.16405    8.44174
       H   -15.15549   -7.52274    6.51302
       O   -15.30675   -8.23611    7.11451
      H1   -14.87873   -8.08813    7.92182
       H   -14.10822   -0.54598    2.33725
       O   -13.84282   -0.97885    1.52984
      H1   -14.30991   -1.83349    1.61375
       H   -13.64178   -3.86253   10.42821
       O   -14.59755   -4.14802   10.52596
      H1   -15.17131   -3.40069   10.31988
       H   -11.74131   -1.23276    3.75026
       O   -11.39934   -0.31799    3.61861
      H1   -10.76416   -0.05612    4.30309
       H   -16.06110   -1.27444   -0.21456
       O   -16.87941   -1.26700    0.35232
      H1   -16.54767   -1.11486    1.21556
       H   -12.82672   -3.42775    3.65664
       O   -12.64428   -2.60375    4.10901
      H1   -13.47509   -2.09919    4.44198
       H   -18.22851   -8.53171   -1.23819
       O   -18.45758   -7.58488   -1.01792
      H1   -17.71233   -7.10533   -1.37049
       H   -10.17628   -3.96635    6.17827
       O   -10.90709   -3.33159    6.36062
      H1   -11.48781   -3.25707    5.55605
       H    -8.07699   -6.32316   -0.06165
       O    -8.19412   -5.37185    0.21260
      H1    -7.36741   -5.14593    0.62111
       H   -14.81918   -4.60479    1.66873
       O   -14.90628   -3.61704    1.58104
      H1   -14.79337   -3.43835    0.63861
       H   -11.22425  -11.58190    5.22124
       O   -11.25765  -11.90423    4.30704
      H1   -10.44691  -12.42381    4.17274
       H   -18.58976  -10.05299    3.32713
       O   -18.31908   -9.97935    2.38959
      H1   -17.66724   -9.25809    2.34598
       H   -10.83461  -11.52553    7.00296
       O   -11.10556  -10.62249    6.69956
      H1   -10.34123  -10.17800    6.33850
       H   -13.29232   -6.29608    3.75629
       O   -13.50013   -5.34028    3.94642
      H1   -13.51290   -5.18518    4.90974
       H    -8.03256  -10.43048    5.49615
       O    -8.62612   -9.70457    5.42737
      H1    -8.96803   -9.59294    4.57050
       H   -17.73433   -1.81268    7.92307
       O   -17.19049   -2.22972    8.61477
      H1   -16.26577   -2.25274    8.28161
       H   -13.84844   -1.12945    9.00585
       O   -13.37284   -1.13939    8.18942
      H1   -12.77282   -1.91965    8.28863
       H   -10.51615   -6.81928    5.27725
       O   -10.85039   -7.47590    5.93390
      H1   -10.97666   -8.25624    5.50376
       H   -13.54788   -9.81930    2.66140
       O   -13.48821  -10.80821    2.63782
      H1   -12.74890  -10.90874    3.27452
       H   -19.68381   -2.03437    7.02364
       O   -19.10613   -1.28936    7.13019
      H1   -18.70409   -1.23125    6.25355
       H   -11.63166   -6.17173    8.98807
       O   -12.19430   -6.13674    8.18536
      H1   -11.57819   -6.66939    7.52161
       H   -11.42957   -3.04455    1.03104
       O   -11.71989   -2.27902    0.51220
      H1   -12.50778   -1.83298    0.89597
       H   -11.29010   -4.96408    1.44885
       O   -10.60009   -4.62556    2.04641
      H1    -9.84485   -4.97880    1.57491
       H   -17.34762   -4.38036    4.30364
       O   -17.60592   -3.61764    3.73354
      H1   -17.46609   -3.94788    2.80039
       H    -8.04228   -2.49505   -0.09563
       O    -8.23665   -1.70842    0.35060
      H1    -8.58078   -2.04142    1.19011
       H    -6.60155   -3.79274    3.08296
       O    -7.22456   -3.64334    3.78620
      H1    -7.82452   -2.98218    3.40085
       H   -17.27730   -0.32321    4.48834
       O   -17.32665   -1.08682    5.07459
      H1   -17.28761   -1.83631    4.43931
       H   -12.45051   -7.99042    2.47036
       O   -13.40573   -8.05875    2.54929
      H1   -13.75205   -7.66528    1.74420
       H   -10.04634   -0.33961    7.12021
       O    -9.51991   -1.11005    7.15327
      H1   -10.00253   -1.92427    6.88948
       H   -17.88612   -6.64531    2.37629
       O   -17.12708   -6.98817    2.81683
      H1   -16.38851   -7.04113    2.14196
       H   -14.47310   -9.68727    6.51183
       O   -13.87954  -10.45239    6.54379
      H1   -13.03461  -10.10650    6.75030
       H    -7.53835   -7.85246    8.20500
       O    -7.31144   -7.79503    7.21630
      H1    -7.97698   -8.33185    6.76455
       H   -16.00356   -5.26823    5.41413
       O   -16.79535   -5.68996    5.07881
      H1   -16.53353   -6.11072    4.24781
       H   -13.86191   -5.20155    7.47800
       O   -14.24415   -4.84105    6.69220
      H1   -14.44547   -3.88698    6.76574
       H   -18.51630   -5.71811    5.54267
       O   -19.43726   -5.59630    5.64790
      H1   -19.87395   -5.89929    4.82316
       H   -15.75961   -1.73997    5.86869
       O   -15.15234   -2.07925    6.49918
      H1   -14.44093   -1.45253    6.56917
       H   -10.75023   -8.05641   -1.67167
       O   -11.42324   -8.20638   -0.96061
      H1   -12.25063   -8.41460   -1.39688
       H   -12.41831   -5.41902   -0.43985
       O   -12.11291   -5.95944    0.32662
      H1   -11.81686   -6.78786   -0.07113
       H   -15.78277   -3.21403   -1.17783
       O   -14.91672   -2.80337   -1.12750
      H1   -14.89165   -1.92122   -1.54147
       H   -11.25579   -2.70554    9.46844
       O   -11.77812   -3.34700    8.97288
      H1   -11.49732   -3.37830    8.04260

