159
frame 1 | Written by MDAnalysis XYZWriter (release 2.4.3)
       H   -10.96462  -15.81216   -6.82815
       O   -10.37521  -15.99406   -7.58092
      H1   -10.26660  -16.94058   -7.71904
       H   -19.14282  -17.37822   -7.37109
       O   -19.80681  -16.89269   -6.83263
      H1   -19.87160  -17.40084   -6.00021
       H    -9.90620  -19.42854   -7.17516
       O    -9.90105  -19.77777   -6.28034
      H1   -10.65091  -19.34028   -5.87413
       H   -13.28639  -18.16966  -15.90771
       O   -12.80119  -18.30899  -16.71018
      H1   -12.50511  -19.19975  -16.69494
       H   -12.08159  -12.22561  -17.45570
       O   -12.29408  -12.78969  -16.65008
      H1   -11.58870  -13.43476  -16.46185
       H   -17.87250  -15.35268  -10.00723
       O   -18.59425  -15.12844  -10.61880
      H1   -18.12349  -14.93501  -11.45536
       H   -17.92353  -11.81824  -11.13272
       O   -17.02416  -11.58981  -11.39609
      H1   -16.92983  -10.65247  -11.12860
       H   -10.28001  -15.62779  -16.35126
       O   -10.71969  -14.86892  -15.98311
      H1    -9.94892  -14.42853  -15.53082
       H   -10.27275  -11.33633  -18.45448
       O   -11.09495  -11.66710  -18.87130
      H1   -11.24947  -11.11215  -19.67364
       H    -6.62295  -16.69315  -15.24347
       O    -7.13577  -17.28576  -14.63337
      H1    -6.73930  -18.16532  -14.78570
       H   -12.96864  -18.64615   -4.94520
       O   -12.11867  -19.02392   -4.68613
      H1   -12.29052  -19.99438   -4.66113
       H   -10.70132  -14.88515  -11.99140
       O   -10.78020  -14.48593  -11.13108
      H1    -9.88088  -14.21587  -10.97041
       H   -11.29090  -12.17742  -12.82116
       O   -10.29679  -12.06581  -12.65497
      H1    -9.79864  -12.52680  -13.36005
       H   -14.54723  -15.37337  -17.72583
       O   -14.64252  -15.91154  -18.52546
      H1   -13.77300  -16.24110  -18.67439
       H   -13.29253  -16.92468   -8.90438
       O   -13.90471  -16.50519   -8.29493
      H1   -13.75289  -15.54631   -8.41680
       H    -7.09581  -18.23580  -10.75747
       O    -6.65460  -17.58502  -11.37927
      H1    -7.25325  -17.57066  -12.13533
       H    -6.21285  -15.90373  -11.43812
       O    -6.17616  -14.92985  -11.30916
      H1    -6.27096  -14.52907  -12.21978
       H   -11.83040  -16.07072  -13.19200
       O   -10.90343  -15.81045  -13.43364
      H1   -10.95530  -15.51859  -14.33847
       H   -16.92166  -15.28044   -7.59692
       O   -16.83856  -15.51993   -8.49208
      H1   -16.38495  -14.78245   -8.86560
       H   -16.44061  -12.19629  -16.49104
       O   -16.86785  -13.06593  -16.14832
      H1   -17.16071  -12.78368  -15.27687
       H   -13.60537   -9.83835  -14.98532
       O   -14.22969   -9.89116  -14.21820
      H1   -15.00352   -9.41411  -14.49441
       H    -5.56803  -14.40436  -15.91022
       O    -6.14004  -15.20611  -16.12446
      H1    -6.85519  -14.80860  -16.63314
       H    -8.08887  -13.25250  -14.26954
       O    -8.84506  -13.22849  -14.87619
      H1    -8.69996  -12.51436  -15.50555
       H   -12.94190  -10.29209  -17.45383
       O   -12.50381   -9.69825  -16.80480
      H1   -11.58258   -9.98625  -16.72526
       H   -13.54642  -11.12663  -13.32860
       O   -12.99655  -11.58884  -12.70558
      H1   -13.11030  -11.10827  -11.84952
       H   -15.08587  -18.19842  -15.05406
       O   -14.37834  -18.26093  -14.38722
      H1   -14.51611  -19.15740  -14.07536
       H   -16.87362  -18.51082   -7.69823
       O   -17.60772  -18.20411   -8.25271
      H1   -17.21716  -17.36412   -8.58698
       H   -10.53457  -18.22449   -9.53445
       O    -9.96686  -18.56146   -8.80932
      H1    -9.06896  -18.50228   -9.16541
       H   -11.33457  -16.65151  -19.24092
       O   -12.23961  -17.02068  -19.09475
      H1   -12.17960  -17.25689  -18.15774
       H   -16.56471  -18.37923  -18.01167
       O   -17.02346  -18.61522  -18.83787
      H1   -17.17195  -17.76281  -19.36456
       H   -16.18123  -14.34273  -13.01123
       O   -17.12466  -14.66811  -12.99183
      H1   -17.27677  -15.20374  -13.77299
       H   -16.05999  -11.11987  -18.07589
       O   -15.87992  -10.70931  -17.22379
      H1   -16.59371  -10.08201  -17.03806
       H   -13.72210  -13.85361  -16.33935
       O   -14.46623  -14.47383  -16.03907
      H1   -15.25363  -13.93724  -16.12230
       H   -16.49510  -17.17051  -16.05153
       O   -15.73102  -17.58699  -16.48598
      H1   -15.24002  -16.91882  -16.97419
       H   -11.30295  -11.27034  -10.46654
       O   -11.83316  -11.41370   -9.63993
      H1   -12.24643  -12.29045   -9.88786
       H    -9.36672  -16.46945  -19.05655
       O    -9.73985  -16.22728  -19.91102
      H1    -9.83087  -15.25761  -19.89188
       H   -13.77945  -13.22085  -12.85368
       O   -14.32027  -13.94913  -13.25238
      H1   -14.21836  -13.93773  -14.22277
       H   -14.95976  -19.21981   -8.70832
       O   -14.87902  -19.12069   -7.73289
      H1   -14.53848  -18.27589   -7.52179
       H   -17.89888  -10.62262  -13.62715
       O   -18.49018  -11.40771  -13.62199
      H1   -18.04802  -11.82533  -12.90947
       H    -8.21670  -17.49235  -17.93367
       O    -8.47588  -16.73609  -17.36646
      H1    -8.07879  -16.92106  -16.50707
       H   -12.57747  -18.66501  -10.33201
       O   -12.31174  -17.76405  -10.17672
      H1   -12.80024  -17.44259  -10.97064
       H    -7.60878  -15.02584  -10.01821
       O    -8.14391  -14.94648   -9.25674
      H1    -8.93575  -15.48783   -9.42491
       H    -9.98495  -17.30241  -13.09181
       O    -9.33126  -18.01019  -13.24893
      H1    -8.54648  -17.63650  -13.68002
       H   -15.33380  -18.43486   -4.90587
       O   -14.60809  -17.92771   -5.13683
      H1   -14.94946  -17.02415   -5.18989
       H   -15.62848  -11.71640   -8.65725
       O   -15.84788  -10.88061   -8.26639
      H1   -16.71699  -11.00552   -7.87795
       H   -18.24335  -17.41537  -14.67686
       O   -17.73829  -16.60181  -15.04058
      H1   -18.36905  -16.24637  -15.67214
       H    -7.82336  -19.23834  -19.56841
       O    -7.80558  -19.13275  -18.60844
      H1    -8.60142  -19.58650  -18.23718
       H   -18.93609  -19.31859  -14.63374
       O   -19.21679  -18.63445  -14.05564
      H1   -19.39617  -19.02392  -13.20784
       H   -19.36883  -11.56991  -17.84427
       O   -18.94174  -11.16298  -18.59281
      H1   -18.10015  -11.65915  -18.63932
       H   -13.98880  -17.31233  -13.12589
       O   -13.55538  -16.77815  -12.40141
      H1   -13.99418  -15.94177  -12.54243
       H   -14.70360  -13.46288  -10.07225
       O   -15.52374  -13.12428   -9.68818
      H1   -15.99615  -12.67411  -10.36113
       H   -12.11108  -14.49722   -9.33589
       O   -12.83352  -13.99767   -8.95867
      H1   -12.70756  -13.85267   -8.03253
       H   -10.32098  -10.41860  -13.59244
       O   -10.06336   -9.58494  -13.93296
      H1    -9.39225   -9.26361  -13.27152

