159
frame 7 | Written by MDAnalysis XYZWriter (release 2.4.3)
       H   -19.44422    1.27015   -5.40348
       O   -19.35677    1.43149   -6.33551
      H1   -18.41241    1.59900   -6.46149
       H   -15.94910    5.09026    7.29316
       O   -15.43638    4.25701    7.28214
      H1   -14.55163    4.59894    7.45894
       H   -16.66408   -5.13327   -1.32815
       O   -16.80733   -4.26439   -1.63639
      H1   -17.10699   -4.43613   -2.62161
       H   -16.35203    1.05594    6.04378
       O   -15.97314    0.64840    5.22757
      H1   -16.43883    1.11642    4.51049
       H   -16.40778    2.59515    7.34402
       O   -17.27079    2.12986    7.27946
      H1   -17.95930    2.58809    7.76780
       H   -15.70478    4.36503   -2.49459
       O   -15.02291    4.56250   -3.13031
      H1   -14.92353    5.53037   -3.04723
       H   -19.07834    6.73824    1.58187
       O   -18.28488    6.51000    2.10520
      H1   -17.55792    6.64757    1.48669
       H   -18.07596   -4.30256   -0.13283
       O   -18.47201   -4.56010    0.72689
      H1   -19.16444   -3.90884    0.99465
       H   -13.10960    9.10765   -0.46096
       O   -12.49898    8.51919   -0.92868
      H1   -12.18231    7.76275   -0.37416
       H   -14.90639    8.40138   -3.19316
       O   -14.68817    7.58670   -2.69925
      H1   -14.00463    7.80348   -2.06253
       H   -16.98367    0.24410    2.31088
       O   -16.73090    1.04570    2.76209
      H1   -17.41893    1.69575    2.61723
       H   -16.18661    5.47040    4.49407
       O   -16.25377    4.53112    4.30145
      H1   -16.17736    4.08499    5.17634
       H   -15.35826   -2.32935   -4.96205
       O   -15.71929   -1.42200   -4.98683
      H1   -15.23535   -0.82582   -4.45683
       H   -13.20619   -1.18067    2.41971
       O   -12.86968   -1.63947    1.63273
      H1   -13.60674   -1.92560    1.04887
       H   -16.56757   -1.89765    1.83001
       O   -17.37066   -1.41884    1.76652
      H1   -17.61187   -1.51927    0.79901
       H   -14.11421   -1.74673    4.49188
       O   -13.77549   -0.87427    4.17931
      H1   -14.45914   -0.18582    4.42865
       H   -18.49335   -4.76909   -4.53839
       O   -17.65447   -4.34945   -4.58117
      H1   -17.93027   -3.47679   -4.88039
       H   -19.83637    9.54536    1.71091
       O   -19.64931    9.93487    2.61331
      H1   -19.43122    9.22253    3.21393
       H   -16.88370    4.46997   -5.80559
       O   -16.23676    3.80001   -5.64800
      H1   -15.79259    4.13235   -4.83926
       H   -18.26438    9.28531   -5.25128
       O   -17.94662    9.85064   -4.53591
      H1   -18.16024    9.30736   -3.76990
       H   -18.65365   -1.93732   -6.44388
       O   -18.44584   -1.76766   -5.47624
      H1   -17.47716   -1.54899   -5.40112
       H   -15.20912   -3.85757    3.62804
       O   -15.84437   -3.53761    2.93303
      H1   -16.00835   -4.31692    2.42777
       H   -13.08793   -0.05171   -3.88561
       O   -13.93380    0.42875   -3.79630
      H1   -13.94078    1.02890   -4.49929
       H   -18.70125    7.80947   -7.21269
       O   -18.01728    7.76470   -6.54080
      H1   -17.19677    8.01787   -6.97961
       H   -18.31636    7.40701    4.01336
       O   -18.80285    7.84599    4.71615
      H1   -18.10575    8.16641    5.26268
       H   -15.33637    4.78413    1.23691
       O   -15.00307    4.63326    0.34507
      H1   -14.79273    3.69039    0.24016
       H   -14.37274    9.51500    1.36629
       O   -14.37447   10.31905    0.85425
      H1   -15.29827   10.45447    0.55414
       H   -12.16488    5.05196    2.62543
       O   -12.91320    5.36603    2.17707
      H1   -13.03261    4.79928    1.42235
       H   -16.31024    2.41141   -6.70696
       O   -16.67387    1.64091   -7.20753
      H1   -15.86696    1.20390   -7.56184
       H   -10.75430    1.20640   -1.17133
       O   -10.59224    1.37273   -2.09778
      H1   -11.19981    2.08194   -2.37761
       H   -18.61595    5.53666   -1.95280
       O   -17.68965    5.59837   -2.27337
      H1   -17.77257    5.53287   -3.23714
       H   -20.35175   -2.07868    7.17554
       O   -19.69655   -1.37234    6.98532
      H1   -18.82466   -1.73850    6.78393
       H   -11.29976    3.66746    1.08859
       O   -11.62405    3.33317    0.22523
      H1   -12.00056    2.47969    0.51726
       H   -18.38589   -4.52168    4.37417
       O   -18.32644   -3.61421    3.98705
      H1   -17.48116   -3.69617    3.51836
       H   -16.58706   -1.12522    5.66908
       O   -17.00825   -1.84907    6.16171
      H1   -17.50793   -2.38499    5.52825
       H   -18.16741    4.64056    2.38649
       O   -18.07862    3.69535    2.57188
      H1   -17.55230    3.77774    3.34909
       H   -17.70502   -2.45586   -1.91667
       O   -18.18642   -1.68730   -1.72778
      H1   -18.26925   -1.16259   -2.49417
       H   -16.86386    7.84125    7.71656
       O   -16.89124    6.85560    7.51532
      H1   -17.91512    6.72651    7.49668
       H   -13.74118    4.82370    4.84628
       O   -13.20250    5.49507    5.34706
      H1   -13.08407    5.06558    6.15881
       H   -12.43638    0.17771    1.46474
       O   -12.56975    1.13312    1.59736
      H1   -11.71524    1.40145    2.01197
       H   -12.64831    3.04956   -4.41446
       O   -12.34024    3.28518   -3.51456
      H1   -12.96387    3.94321   -3.19320
       H   -14.09541    0.10690   -2.02827
       O   -14.00846    0.04275   -1.10733
      H1   -14.52793    0.81556   -0.75777
       H   -13.75511    6.98373    2.10117
       O   -14.43282    7.67820    1.93273
      H1   -15.07884    7.29879    1.28867
       H   -14.39125    6.95325    5.04626
       O   -15.20517    7.33548    4.62802
      H1   -14.91581    7.38929    3.71957
       H   -14.78007    8.94418    5.03024
       O   -14.37134    9.78472    5.34430
      H1   -13.76589    9.90623    4.61703
       H   -18.29383    6.31627   -5.80124
       O   -18.37358    5.40970   -5.43298
      H1   -19.20176    5.05139   -5.86846
       H   -14.57191    1.77539    0.92812
       O   -15.15198    1.98451    0.19748
      H1   -16.05519    1.94697    0.45844
       H   -18.96446    2.11844   -0.76014
       O   -19.31496    2.24722    0.13797
      H1   -18.88261    3.08408    0.46621
       H   -17.15894    2.81389   -4.23671
       O   -17.53749    2.29779   -3.50683
      H1   -16.95088    1.54172   -3.47907
       H   -18.51714    8.54701   -1.48638
       O   -17.74437    8.63375   -2.07639
      H1   -17.35683    7.75726   -2.12994
       H   -17.27651   10.24749   -0.67472
       O   -16.91880   10.69880    0.05551
      H1   -17.63305   11.29626    0.40797
       H   -16.19579    6.16091   -0.20213
       O   -16.41573    6.99511    0.19049
      H1   -16.46681    7.59610   -0.55153
       H   -15.19343   -3.01303   -1.28366
       O   -14.46771   -2.66879   -0.76442
      H1   -14.31622   -1.77810   -1.08593

