159
frame 11 | Written by MDAnalysis XYZWriter (release 2.4.3)
       H    -3.06439   11.23300    9.49752
       O    -2.21042   11.19349    9.00170
      H1    -1.91448   12.08982    8.81224
       H   -10.08190   14.51179   15.84172
       O    -9.50935   13.77773   16.07062
      H1   -10.08473   13.33340   16.66992
       H    -8.81007   11.00078   13.52522
       O    -9.45348   11.70599   13.54938
      H1    -8.87079   12.53117   13.46694
       H   -11.75211   13.70542   14.10461
       O   -11.90955   12.79234   13.96264
      H1   -11.14280   12.42950   13.61072
       H   -10.16593   19.28039   16.65098
       O   -10.22935   18.33497   16.66103
      H1    -9.83635   18.03032   15.82143
       H     0.67628   14.64976   16.59218
       O     0.64189   15.35281   17.19914
      H1     1.45179   15.14082   17.68991
       H    -4.93622   15.65150   12.43484
       O    -5.31211   15.20296   13.18427
      H1    -6.26719   15.21243   12.98418
       H   -10.43595   16.87208   11.98050
       O   -10.18118   15.92839   12.08963
      H1   -10.99356   15.43536   11.94416
       H    -7.50098   15.07156    8.89554
       O    -7.20866   15.78864    8.37739
      H1    -8.05036   16.15713    8.11076
       H    -9.54564   17.15731   18.18237
       O    -9.10805   16.52066   18.73724
      H1    -8.62290   15.95086   18.08229
       H    -4.18400   16.20019    7.82132
       O    -3.40524   16.16636    8.49421
      H1    -2.74430   15.64829    8.01903
       H    -8.80779   14.94250   12.62675
       O    -8.22308   14.16728   12.77572
      H1    -7.68651   14.26046   11.92586
       H    -2.74538   14.40535   17.45335
       O    -3.15965   13.79677   16.86812
      H1    -3.31019   13.03134   17.48817
       H    -2.17040   15.33861   19.13294
       O    -1.84779   15.76761   18.30840
      H1    -1.03342   15.37047   17.94535
       H    -7.39089   10.47444   16.83486
       O    -7.62793    9.70265   17.29415
      H1    -7.47415    9.85786   18.18600
       H    -5.81964   11.98330   12.79011
       O    -6.28252   11.58864   12.02631
      H1    -5.57446   11.41539   11.39599
       H   -10.96305   15.93165   14.13961
       O   -11.66114   15.50426   14.62378
      H1   -11.78748   16.05593   15.43008
       H    -1.08271    9.63543   12.35438
       O    -1.80790    9.26551   12.80999
      H1    -2.02821    9.82585   13.58499
       H    -8.22395   17.00936   14.81284
       O    -9.12681   17.20805   14.48614
      H1    -9.09426   18.00592   13.94703
       H    -5.62054   19.68814   16.22683
       O    -5.35394   19.16378   15.48614
      H1    -4.44420   18.85707   15.63900
       H    -4.05388    7.83085   10.77119
       O    -3.93387    8.76873   11.10298
      H1    -3.10900    8.75791   11.62427
       H    -1.68092   16.25738   11.54295
       O    -1.36284   15.75088   10.77895
      H1    -1.41840   16.43525   10.01512
       H    -2.12943   14.55089   15.53380
       O    -1.54582   14.95964   14.80744
      H1    -1.87233   15.88336   14.63941
       H     1.42798   19.02878   13.31511
       O     0.54075   18.79110   13.61720
      H1     0.48612   17.85667   13.39165
       H    -2.33920   13.95689    6.95568
       O    -1.81722   13.92743    7.76328
      H1    -0.88761   13.92650    7.44893
       H     0.22745   15.60542   14.25965
       O     1.03371   15.93215   13.86129
      H1     0.96752   15.45548   13.00095
       H   -10.18018   10.95977   15.58615
       O   -10.41094   10.29145   16.22095
      H1    -9.65065   10.32262   16.82920
       H     0.09541   14.72313   11.07208
       O     0.94881   14.35734   11.27426
      H1     0.65642   13.56431   11.85875
       H    -8.37793   14.49892   16.90907
       O    -7.62715   14.84331   17.46989
      H1    -7.43675   15.60416   16.89184
       H    -3.00429   18.65148   11.16842
       O    -2.07208   18.70617   11.40603
      H1    -1.92837   19.66604   11.57274
       H    -0.52697   18.60135   18.39948
       O    -1.43972   18.52870   18.43902
      H1    -1.68230   17.58472   18.39530
       H     1.46577   11.70036   12.84868
       O     0.59351   12.09387   12.60456
      H1     0.09815   11.60828   11.92297
       H    -7.30586    8.67442   12.72081
       O    -7.92601    9.42684   12.68096
      H1    -7.50724   10.18490   12.25757
       H    -3.77931   11.05389   14.62067
       O    -2.93312   10.69648   14.98661
      H1    -2.43508   11.51693   15.11515
       H    -3.90481   16.23979   10.45977
       O    -4.38225   16.71393   11.12718
      H1    -5.08175   17.27387   10.69593
       H    -9.14950   19.43172   12.15504
       O    -9.91765   18.98151   12.55179
      H1   -10.71186   19.54071   12.34721
       H    -2.71871   11.14121   18.25409
       O    -3.52368   11.31146   17.81065
      H1    -3.30573   11.10465   16.91185
       H    -1.98186   18.78289   16.67750
       O    -2.47508   18.98116   15.87144
      H1    -2.23281   18.29166   15.22656
       H    -4.95488   13.44224   14.18977
       O    -5.00317   12.50140   14.40159
      H1    -5.32069   12.49863   15.33146
       H    -6.28964   16.08179   15.04495
       O    -6.77573   16.72526   15.56300
      H1    -6.18574   17.50484   15.64232
       H    -2.12704   17.81177    6.34841
       O    -2.56248   18.26107    7.11003
      H1    -2.77966   17.61753    7.77719
       H    -5.30448   11.26185    9.39758
       O    -4.56055   11.34331   10.01730
      H1    -4.42779   10.37491   10.25891
       H    -5.25488   18.96790    9.73406
       O    -5.99004   18.34615    9.85960
      H1    -6.26497   18.17644    8.92723
       H    -6.61347   13.12764   10.93088
       O    -6.60143   14.02652   10.64444
      H1    -5.83158   14.39667   11.09033
       H    -9.42783   12.53808    8.59857
       O    -9.07342   12.39287    7.69781
      H1    -9.52561   11.54487    7.36455
       H    -5.07445   17.00998   19.27583
       O    -5.63809   17.25845   18.54447
      H1    -5.26719   18.13653   18.31999
       H    -0.03073   11.78923   15.13484
       O    -0.68793   12.40781   15.50128
      H1    -0.86438   13.10534   14.81916
       H    -5.50238   16.60773    5.58712
       O    -5.28492   15.99425    6.33880
      H1    -5.97338   15.95315    6.98683
       H    -2.18888   17.69398   12.91458
       O    -2.44842   17.27066   13.77708
      H1    -3.34209   17.03239   13.73201
       H    -8.89222   13.28172   10.68831
       O    -9.71382   13.16430   10.16333
      H1   -10.16850   12.54277   10.80112
       H    -6.59532    9.94635    8.31295
       O    -6.77029   10.91774    8.25708
      H1    -7.72075   11.11098    8.19977
       H    -5.93634   12.06430   17.56001
       O    -6.62139   12.11734   16.86827
      H1    -7.13936   12.91177   17.08506
       H    -5.98190   14.30377   18.61972
       O    -5.42906   13.72759   19.13876
      H1    -6.14839   13.13977   19.50373

