159
frame 12 | Written by MDAnalysis XYZWriter (release 2.4.3)
       H     9.03508   -9.26426  -13.68777
       O     8.29415   -9.64860  -13.20690
      H1     8.60979  -10.59365  -13.04095
       H    16.18254  -18.92086  -16.08201
       O    15.26210  -18.90406  -16.32917
      H1    14.87001  -18.93685  -15.44799
       H     0.65347  -16.76162   -9.65248
       O     0.39886  -17.67327   -9.81456
      H1     0.90951  -18.02931  -10.58604
       H     0.27053  -19.30506  -15.18765
       O     1.21440  -19.16340  -15.00202
      H1     1.46404  -20.03490  -14.62467
       H     7.18867  -19.57523  -16.69169
       O     7.14617  -19.18597  -15.86907
      H1     7.53881  -18.33768  -15.98970
       H     3.95519  -15.92423  -17.98101
       O     3.68429  -15.08342  -17.64419
      H1     2.75338  -15.11551  -17.68144
       H     4.16625  -13.25180  -13.32589
       O     3.18914  -13.43403  -13.35795
      H1     2.87780  -12.51898  -13.54015
       H     2.12558  -19.07019  -16.52312
       O     2.20725  -18.90227  -17.47623
      H1     3.13043  -18.63787  -17.67257
       H     1.80676  -11.40392  -18.73725
       O     2.63285  -10.96783  -18.54235
      H1     3.25098  -11.70229  -18.35113
       H    13.70269  -14.04424  -16.94423
       O    13.93756  -14.80673  -16.38424
      H1    14.36050  -15.48369  -16.96559
       H     6.25433  -18.27761   -9.94991
       O     6.45115  -17.39157  -10.22314
      H1     5.57919  -16.97521  -10.28282
       H     7.22385  -14.53634  -18.39886
       O     7.54181  -14.47232  -17.48178
      H1     8.16502  -13.73444  -17.39369
       H     5.81103  -17.14436   -6.87090
       O     5.64116  -17.61474   -6.07113
      H1     4.88532  -17.20308   -5.68618
       H    12.13764  -17.30607  -15.91685
       O    11.71068  -17.34400  -16.74264
      H1    11.63387  -18.33152  -16.87724
       H     4.13440  -12.85156   -9.60529
       O     4.66426  -12.77259   -8.80357
      H1     3.96324  -12.82932   -8.11590
       H    -1.22631  -14.90473  -15.62409
       O    -1.06569  -15.85276  -15.85706
      H1    -1.46316  -16.45141  -15.21985
       H     0.50076  -15.86200  -16.95034
       O     1.06437  -15.84808  -17.72502
      H1     1.33283  -16.79989  -17.70917
       H    -1.22388  -17.81056  -12.98516
       O    -1.24764  -16.88001  -13.24726
      H1    -0.33723  -16.58714  -13.14090
       H     9.39754  -16.50532   -9.27209
       O     9.14605  -16.68209  -10.21958
      H1     8.20100  -16.80092  -10.24849
       H     5.75209  -14.72492   -8.18632
       O     6.24837  -15.53874   -7.97851
      H1     6.30924  -15.93616   -8.84274
       H    13.46899  -17.19880  -18.21376
       O    14.36478  -16.82647  -18.08480
      H1    14.86568  -17.46215  -17.53678
       H     9.68037  -19.83362   -9.46465
       O    10.34453  -19.31208   -9.90559
      H1    10.07832  -18.41770   -9.86221
       H    13.52449  -13.28506  -18.88512
       O    13.72683  -12.79445  -18.08740
      H1    13.26628  -11.96494  -18.21223
       H    10.46235  -16.80607   -7.18784
       O    10.41509  -16.00174   -7.77943
      H1     9.71933  -15.46168   -7.41426
       H    10.69279  -12.57037  -16.69629
       O    10.75914  -12.74067  -17.64926
      H1    11.44043  -13.43975  -17.58824
       H    12.68074  -19.02404  -13.85576
       O    13.32381  -18.34713  -14.02980
      H1    12.94377  -17.45144  -14.12847
       H     2.15950  -19.21557  -12.02465
       O     2.09533  -18.27827  -11.80358
      H1     1.72647  -17.86076  -12.62407
       H    13.70845  -16.24772  -11.37265
       O    13.04634  -16.32200  -10.65627
      H1    13.61439  -16.29548   -9.90366
       H     0.30198  -13.46251  -17.76008
       O    -0.25813  -12.69392  -17.49836
      H1    -0.88106  -12.71528  -18.24576
       H     4.35310  -17.92641  -15.01295
       O     4.51023  -18.89993  -15.10489
      H1     5.42486  -18.95643  -15.43590
       H     8.24605  -16.38604  -13.14622
       O     7.30369  -16.24742  -13.27795
      H1     6.86201  -16.85645  -12.66657
       H     3.50286  -17.93287   -8.80237
       O     3.77703  -18.51114   -8.12510
      H1     3.62475  -17.96666   -7.37973
       H     1.63312  -16.48095  -14.50429
       O     1.27601  -16.13612  -13.69783
      H1     1.79098  -15.35511  -13.50415
       H     3.35107  -17.28411  -10.92302
       O     3.72617  -16.64088  -10.30738
      H1     3.00357  -15.99253  -10.17618
       H    14.37405  -19.23371  -10.82599
       O    15.14436  -19.16783  -11.40657
      H1    15.66129  -19.91011  -11.21638
       H    12.44395  -14.80866  -11.07349
       O    12.33042  -13.88283  -11.40045
      H1    12.17339  -13.96305  -12.35439
       H     7.53863   -9.83083  -16.96094
       O     8.22936  -10.21314  -17.51946
      H1     8.13917   -9.73882  -18.39492
       H     9.60048  -15.03993  -10.68201
       O     9.83181  -14.09048  -10.77540
      H1    10.76271  -13.96377  -11.00492
       H    10.53994  -12.47845  -13.97360
       O    11.07585  -12.33615  -14.79261
      H1    11.78349  -11.68775  -14.60181
       H    14.12551  -15.84091  -13.21370
       O    14.81553  -16.19184  -12.61864
      H1    14.61746  -17.13674  -12.65553
       H     9.94835  -17.21878  -16.51346
       O     9.16790  -17.09198  -15.88162
      H1     9.04642  -16.14348  -16.09473
       H     9.83690  -19.43709  -11.72242
       O     9.31138  -19.09241  -12.47557
      H1     9.71202  -19.51321  -13.23154
       H     6.34039  -20.08454   -7.93817
       O     6.54649  -20.00119   -6.99218
      H1     6.30856  -19.07245   -6.79461
       H     6.08555  -10.87853  -18.57074
       O     5.39827  -11.35775  -18.13083
      H1     5.77282  -11.54207  -17.27307
       H     2.04638  -14.47497   -9.99405
       O     1.34356  -14.92922   -9.54720
      H1     0.51101  -14.45860   -9.76385
       H    11.69375  -16.03463  -14.15654
       O    12.62405  -15.82298  -14.25103
      H1    12.81061  -15.45013  -15.12669
       H     2.51749  -12.47879  -10.49947
       O     2.97308  -13.30484  -10.74501
      H1     3.08830  -13.38123  -11.71462
       H     5.97088  -13.31928  -14.34011
       O     6.04682  -13.50289  -13.36378
      H1     6.14639  -14.47151  -13.30816
       H     4.67074  -15.94368  -14.20793
       O     3.94643  -16.15775  -14.73449
      H1     3.90403  -15.67164  -15.50324
       H     8.92170  -12.96795  -12.18319
       O     8.73306  -12.74931  -13.08419
      H1     7.86446  -13.19569  -13.27753
       H     5.30412  -18.23431  -18.31099
       O     4.80122  -17.46543  -18.64468
      H1     5.42848  -17.13816  -19.25138
       H     6.01757  -13.85319  -16.59101
       O     5.59210  -13.17162  -16.04956
      H1     4.68737  -13.23199  -16.37559
       H    10.10635  -17.06697  -12.57550
       O    10.18025  -16.44702  -13.35695
      H1     9.78277  -16.83303  -14.11072

