159
frame 3 | Written by MDAnalysis XYZWriter (release 2.4.3)
       H    17.13721    3.65633    5.85727
       O    17.50237    3.05717    6.58966
      H1    16.94765    3.16444    7.38238
       H    16.15748    6.30130    5.07903
       O    17.03101    5.84614    4.75806
      H1    17.78131    6.41499    5.04292
       H     8.11353    5.69258   12.67654
       O     8.10230    6.56705   12.17320
      H1     7.24221    6.97977   12.37214
       H    15.61054    5.38758   11.78819
       O    15.12509    6.24186   11.81351
      H1    14.32267    6.08144   12.28968
       H     6.22668    4.03943   10.65852
       O     5.48756    3.37780   10.70989
      H1     5.80646    2.45759   10.88508
       H     6.95627    3.01458    5.00542
       O     7.40480    2.19838    4.75904
      H1     7.27343    1.56148    5.45421
       H    13.31795    3.81250    1.94987
       O    13.99730    3.72176    1.25130
      H1    14.14562    2.79589    1.15044
       H    14.35224    3.21219    9.22666
       O    15.15153    3.67123    9.53225
      H1    15.15785    4.55639    9.15329
       H     9.68320    9.39106   13.02465
       O    10.22969    9.44479   12.23120
      H1    10.27345    8.58105   11.84701
       H    12.05092    2.36367   13.38689
       O    12.49970    1.68782   13.94478
      H1    13.15457    1.25679   13.40502
       H    14.70382    0.91343   11.99977
       O    14.24925    0.16798   12.41981
      H1    13.59814   -0.14084   11.82713
       H    12.59442    1.71213    5.37508
       O    13.19892    2.41995    5.60968
      H1    13.14510    3.03560    4.86051
       H     6.93011    4.89149    4.45396
       O     6.41349    4.60368    5.17606
      H1     6.63171    5.25512    5.89512
       H    12.83047    5.12950    3.83326
       O    12.70967    4.17882    3.65739
      H1    11.81409    3.96010    3.96694
       H     9.89679   -0.74827    2.24606
       O     9.17559   -0.43693    2.87699
      H1     8.45355   -0.00786    2.32650
       H     9.42300    7.66285    4.20913
       O     9.16281    6.89186    4.72410
      H1     9.72209    6.12726    4.45016
       H    14.44982   -0.80502    8.46623
       O    15.15501   -1.04315    9.04730
      H1    15.32995   -1.98251    8.94137
       H    14.77563   10.05976    9.16773
       O    15.02203    9.47118    9.97154
      H1    14.79425    8.57985    9.61190
       H    11.63930    7.79919    7.15809
       O    11.49387    8.39016    6.35577
      H1    10.51202    8.33670    6.28801
       H    16.55184    0.66243    4.29712
       O    16.79990    0.09393    3.53288
      H1    16.04190   -0.09597    2.94368
       H    13.43840    1.05859    8.09551
       O    13.42554    0.28735    7.48652
      H1    14.17487    0.34042    6.81105
       H    10.83535    4.83310    1.23383
       O    10.61598    3.91726    1.02544
      H1    11.17641    3.69130    0.22716
       H    17.75962    0.00941    7.54337
       O    17.36609    0.56915    8.19337
      H1    16.58528    0.05169    8.48502
       H     7.04267   -0.16631    6.28480
       O     6.96710    0.50724    6.97828
      H1     7.73657    0.43717    7.55736
       H    15.53572    6.99979    7.01608
       O    15.21605    7.33195    6.18257
      H1    14.31573    7.03511    6.02157
       H     8.23925    6.08097    3.40969
       O     7.79497    5.47410    2.81426
      H1     8.40544    5.49734    2.09103
       H     8.57293    7.48413    6.60379
       O     8.68408    7.73540    7.51547
      H1     8.12371    8.51757    7.56580
       H     6.49624    1.64268    1.43893
       O     6.70325    1.11083    2.16774
      H1     6.67595    1.64040    3.00518
       H     7.42637    6.52920    7.64262
       O     6.76010    5.85227    7.49519
      H1     5.91739    6.31522    7.70834
       H    10.14347    1.12059   12.57554
       O     9.52307    0.34426   12.53024
      H1     8.71043    0.79336   12.75808
       H    11.66362    1.01632    0.88719
       O    10.82913    1.12455    1.36295
      H1    10.69510    2.08750    1.35123
       H    13.56236   -1.40019    4.66510
       O    13.05653   -1.14521    3.87952
      H1    12.52176   -0.41172    4.19419
       H    13.17595    7.30578    3.83094
       O    13.08153    6.63661    4.54127
      H1    12.19658    6.85266    4.80840
       H     9.35823   -0.42138    7.98895
       O     9.01592    0.20028    8.65010
      H1     8.55646   -0.26796    9.35890
       H    11.44836    6.05793   11.84434
       O    10.94394    6.66992   11.25504
      H1     9.99103    6.46578   11.36461
       H     5.50590    1.38451    7.65435
       O     4.58291    1.60450    7.73044
      H1     4.52431    2.43473    8.19605
       H    15.78040    3.11065   11.25017
       O    15.72488    2.49636   11.98501
      H1    16.34861    1.75988   11.82226
       H    11.76376   -0.45858    7.17037
       O    10.91728   -0.79589    6.87708
      H1    11.13186   -1.70145    6.67638
       H    12.54385    9.73753    5.57778
       O    13.09124   10.49694    5.32040
      H1    13.97481   10.11881    5.14919
       H    12.18439   -0.94157   10.18995
       O    11.96351   -0.07771   10.64850
      H1    11.01251   -0.12877   10.85344
       H     8.21188   -2.37460    5.60664
       O     7.69539   -1.59859    5.26759
      H1     8.12495   -1.24704    4.50408
       H    11.38312    7.04728    9.48361
       O    11.79778    6.77895    8.63544
      H1    11.49209    5.86062    8.45779
       H    12.56649    6.55717   13.55335
       O    12.67862    5.65048   13.21920
      H1    13.29719    5.23378   13.82213
       H    11.24284    3.77571    7.12900
       O    11.18233    4.07502    8.02847
      H1    10.34072    3.64929    8.27714
       H    16.28867    1.36474    6.60712
       O    15.66827    1.12162    5.85733
      H1    14.94890    1.72868    5.77972
       H    10.36325    6.63246    1.38523
       O    11.03416    6.45636    2.08036
      H1    11.74349    7.06708    1.94389
       H    10.96372    0.18854    4.98776
       O    11.29114    0.82653    4.36856
      H1    10.71750    0.79619    3.61085
       H    10.33473    3.54780   11.61351
       O    10.90046    3.27135   12.30371
      H1    11.59318    3.89507   12.43646
       H    12.05268    2.74848    8.81969
       O    12.78959    2.32242    9.28589
      H1    12.36451    1.51094    9.64912
       H    13.82764    6.24787    8.76560
       O    14.73354    6.23177    9.07497
      H1    14.69465    6.23419   10.02838
       H     8.53169    3.54525    9.84747
       O     9.32326    2.98925    9.62703
      H1     8.98095    2.08712    9.39620
       H    10.40923    2.84840    4.75762
       O    10.01560    3.69949    4.59913
      H1     9.09512    3.48227    4.61579
       H     7.28205    5.19880    9.37483
       O     7.56227    4.84879   10.24061
      H1     7.57109    5.68072   10.76232

