159
frame 9 | Written by MDAnalysis XYZWriter (release 2.4.3)
       H    18.35842  -10.03789   12.62532
       O    18.78278  -10.88246   12.41357
      H1    18.60666  -11.50311   13.20371
       H    14.94949  -13.65585    3.54799
       O    14.30001  -13.20787    2.96209
      H1    13.52222  -13.82373    2.83814
       H     7.91966  -12.29167    5.95422
       O     8.32490  -13.06947    6.29566
      H1     7.99083  -13.18713    7.21499
       H    15.36379  -12.92404   11.84898
       O    15.17989  -13.38067   12.63902
      H1    15.57596  -12.81132   13.36457
       H    12.97863  -16.02281   12.35283
       O    12.79751  -16.11741   11.40828
      H1    11.95642  -16.58776   11.26571
       H     9.32942  -13.42345   13.29949
       O     9.70624  -14.21617   13.67521
      H1     9.12026  -14.49061   14.41418
       H     8.50126   -9.09086    7.38681
       O     8.12580   -8.75324    6.50405
      H1     8.68436   -7.99788    6.23534
       H     7.47823  -11.23057   11.22650
       O     7.11950  -10.50610   10.72828
      H1     7.76434  -10.47252    9.93543
       H    12.40591  -14.36069   15.04681
       O    11.85688  -13.64864   15.47474
      H1    11.04607  -13.88395   15.04347
       H    14.46071   -7.02216   10.05888
       O    14.29896   -7.65934    9.34503
      H1    14.77492   -7.27793    8.57732
       H    18.82152  -12.23923    8.30186
       O    18.15151  -12.88869    8.44695
      H1    18.54042  -13.79792    8.26103
       H    11.87051  -12.21714   14.02525
       O    12.04156  -11.29107   13.83107
      H1    11.82490  -11.12756   12.90637
       H    15.36802  -14.12126    5.18460
       O    16.16942  -14.09175    4.58186
      H1    16.62923  -13.27409    4.89103
       H    11.33419   -9.13212    6.03112
       O    11.86394   -9.92693    6.14429
      H1    12.47462   -9.65152    6.82532
       H    16.90129  -17.13173   14.31960
       O    16.95446  -17.62179   13.49188
      H1    17.87457  -17.44764   13.24343
       H    17.50593  -11.70774   11.24422
       O    16.65313  -11.82613   10.75852
      H1    16.96811  -12.20971    9.89528
       H    10.43638  -16.99166   13.40886
       O    11.28924  -17.30330   13.75775
      H1    11.39259  -18.24634   13.66667
       H    13.74924  -11.10076   14.54588
       O    14.60689  -10.94870   14.91538
      H1    14.59330  -10.18051   15.50220
       H    15.57719  -13.63287    8.88743
       O    14.96826  -13.03515    8.46648
      H1    14.18603  -13.06283    9.01060
       H     8.30328   -8.89911   13.73130
       O     8.88366   -8.27735   13.28709
      H1     9.06607   -8.65177   12.40056
       H    12.26687  -12.17691    3.67778
       O    11.47041  -11.62606    3.84415
      H1    11.51560  -11.49026    4.82124
       H    11.84165   -7.24018   14.39725
       O    12.32695   -7.33622   13.52090
      H1    12.21596   -8.22098   13.19949
       H    19.11512  -14.38125   10.60316
       O    19.79584  -14.51951   11.24735
      H1    19.43043  -14.15211   12.05191
       H    10.40250  -11.33352   15.43498
       O    10.02770  -11.14733   16.31002
      H1     9.89522  -11.98556   16.81937
       H     8.81357  -18.30979   10.89437
       O     7.98913  -18.85731   11.12614
      H1     8.27807  -19.71440   11.36759
       H    13.85911   -9.85468    8.80530
       O    13.59033  -10.43918    8.09714
      H1    14.14268  -11.24329    8.21105
       H     7.19239  -15.99986   11.30160
       O     7.87317  -15.29785   11.39588
      H1     8.05168  -15.26325   12.32556
       H    15.25987  -12.85873   15.83251
       O    16.18514  -13.13728   16.01263
      H1    16.70816  -12.36655   15.85057
       H    19.09343  -12.76348   14.57120
       O    18.98095  -13.42152   13.87951
      H1    18.23089  -14.01636   13.94762
       H    12.28146  -11.31157   10.19170
       O    12.35442  -10.79918   10.97823
      H1    13.29022  -10.77753   11.09558
       H     9.72166  -17.05134    9.66807
       O     9.88396  -17.04025   10.61930
      H1     9.33939  -16.25148   10.94677
       H    11.28963   -9.23226   10.80424
       O    10.47995   -8.80255   10.92069
      H1    10.64379   -7.84619   10.63739
       H    14.18223  -13.69382    7.01541
       O    14.08625  -14.38153    6.36877
      H1    14.82510  -14.96800    6.58001
       H    14.79038  -15.50621   14.96699
       O    13.97885  -14.99887   14.55416
      H1    14.41038  -14.46131   13.94767
       H     8.25974  -11.49718   13.40889
       O     8.28781  -12.06812   12.64701
      H1     7.45714  -12.58203   12.73400
       H    12.75987  -15.92068    8.65093
       O    12.07974  -15.47380    8.08884
      H1    12.60607  -15.13117    7.31783
       H    11.54889  -19.46903    8.00208
       O    12.44576  -19.15336    7.93898
      H1    13.01486  -19.82423    8.27388
       H    14.68503  -10.14073   13.29710
       O    14.62286  -10.01367   12.28970
      H1    15.41791   -9.53298   12.02046
       H    13.59266  -17.20923   10.38962
       O    13.95354  -17.97035    9.80885
      H1    13.40981  -18.03003    9.00226
       H    12.41333  -14.08203    9.42853
       O    12.86339  -13.51584   10.04107
      H1    13.01763  -14.11938   10.72927
       H    16.14126  -14.72917   12.32231
       O    16.79617  -15.42018   12.06606
      H1    16.52034  -16.22133   12.61590
       H    13.97007  -18.27414    4.92752
       O    14.35016  -18.52514    5.82292
      H1    13.57456  -18.52962    6.36949
       H    18.88659  -16.31415    8.76868
       O    18.35274  -15.55544    8.36990
      H1    17.49447  -15.58499    8.81879
       H    16.56650  -16.54500    6.79353
       O    15.60681  -16.52351    7.06562
      H1    15.22808  -17.14786    6.45267
       H     9.95952  -18.94255    5.36006
       O     9.43193  -18.14547    5.30127
      H1     9.13884  -17.84904    6.16862
       H    16.41575  -10.36892    7.34023
       O    16.70154   -9.49531    7.11476
      H1    17.53517   -9.27754    7.50688
       H     7.14329  -14.46002    8.29543
       O     7.11870  -13.71528    8.90676
      H1     7.74443  -14.01438    9.65424
       H    15.71252  -15.91521   10.46396
       O    15.79474  -15.63212    9.58269
      H1    15.42066  -16.29237    9.00567
       H     9.01954  -16.33509    7.47026
       O     9.59371  -17.02822    7.82814
      H1    10.48461  -16.76740    7.56654
       H    16.67911   -9.96482   10.55353
       O    16.65955   -9.01640   10.59980
      H1    15.90703   -8.75004   10.03982
       H     7.01313  -15.60900    6.20374
       O     7.10104  -15.93197    7.12145
      H1     6.34627  -16.48973    7.25222
       H     9.94072  -12.13709    7.20108
       O    10.43820  -11.50894    7.76381
      H1    10.87011  -10.91429    7.13477
       H     9.18523   -9.40172    9.72942
       O     8.76909   -9.69574    8.91523
      H1     9.40727  -10.29034    8.54784

