159
frame 12 | Written by MDAnalysis XYZWriter (release 2.4.3)
       H    -4.25793   -3.26810  -11.79747
       O    -3.45862   -3.58200  -12.28988
      H1    -2.79139   -3.04741  -11.81923
       H     3.18532   -5.14057   -6.09812
       O     4.10136   -5.18823   -6.42978
      H1     4.24714   -6.13070   -6.57028
       H     6.92862   -5.67700  -14.21250
       O     7.79917   -5.48312  -13.80276
      H1     7.72731   -5.89607  -12.93726
       H     8.43050   -4.43772  -16.24917
       O     7.84723   -4.26384  -16.98805
      H1     6.99949   -4.33180  -16.49130
       H    -0.88071   -2.88760  -15.26554
       O     0.07010   -2.98320  -15.44988
      H1     0.34380   -3.42363  -14.64465
       H     2.76483   -4.40786   -9.40377
       O     2.04088   -4.87411   -9.83871
      H1     2.25771   -5.79464   -9.77203
       H    -1.04039   -3.45975   -8.28123
       O    -1.17261   -2.47606   -8.36452
      H1    -1.75951   -2.11354   -7.61727
       H    -0.39054   -6.34730   -9.81150
       O    -0.48848   -7.04381  -10.53102
      H1    -1.36481   -6.88360  -10.88435
       H     1.41343   -2.53588   -5.31320
       O     1.47846   -1.57165   -5.39810
      H1     1.45601   -1.46428   -6.37455
       H     2.18861   -9.41657  -10.18860
       O     2.43632   -8.50731  -10.04685
      H1     3.40313   -8.43173  -10.16499
       H     0.17009   -4.73170   -9.13375
       O    -0.60976   -5.08605   -8.64556
      H1    -0.23561   -5.47127   -7.84564
       H     4.03669   -4.20247   -7.85449
       O     4.23278   -3.63478   -8.64153
      H1     5.16813   -3.76814   -8.90146
       H     6.03191   -5.86670  -18.49379
       O     5.21915   -5.41152  -18.19630
      H1     5.29429   -5.52650  -17.18785
       H    -0.47287    2.66642  -13.12993
       O    -0.00774    3.46224  -13.19927
      H1    -0.60618    3.93964  -13.80966
       H    -2.27300   -1.42896  -13.97266
       O    -2.53967   -2.30756  -14.41381
      H1    -2.96996   -2.74864  -13.66793
       H     5.10337   -0.47161   -9.17608
       O     5.24054    0.03060   -9.96964
      H1     4.65250    0.74022   -9.88169
       H     5.33746    2.61314  -13.26746
       O     4.72705    1.92691  -12.98136
      H1     4.69950    1.25661  -13.69091
       H     1.59187   -0.13698  -12.98085
       O     2.25869   -0.42014  -13.65494
      H1     2.22670    0.22926  -14.34661
       H     7.31805   -3.47766  -13.46473
       O     7.11152   -2.55943  -13.73664
      H1     6.30695   -2.64285  -14.31327
       H     6.99265   -3.33568   -8.43176
       O     6.78715   -3.78410   -9.26947
      H1     6.65834   -3.05661   -9.91199
       H     2.88710   -1.82553  -12.44276
       O     3.04626   -2.79605  -12.33987
      H1     3.37665   -2.88608  -11.41493
       H    -0.51036   -6.40616  -17.70321
       O    -0.60842   -5.53761  -18.05995
      H1    -0.44035   -4.82132  -17.39132
       H     3.20019    5.75282  -12.04476
       O     2.68111    4.98311  -11.78474
      H1     1.84773    5.10002  -12.20550
       H     5.50900   -1.40405   -6.04190
       O     5.84628   -1.85996   -5.25644
      H1     6.58290   -1.36512   -4.91582
       H     0.46064    2.00220   -8.65925
       O     1.01234    1.41319   -9.16108
      H1     1.79809    1.87924   -9.46938
       H     2.27625   -7.71473  -11.55809
       O     2.42700   -7.44476  -12.47086
      H1     1.53992   -7.19547  -12.77027
       H     6.47743    0.37117  -14.59504
       O     5.62778    0.36539  -15.02851
      H1     5.76033    0.91828  -15.81775
       H     3.91020    2.26499  -11.22756
       O     3.56899    2.45495  -10.32189
      H1     3.53682    3.40826  -10.27613
       H     6.81255    0.85453   -9.58726
       O     7.68025    1.25476   -9.28759
      H1     7.42674    2.21028   -9.40211
       H     0.95517    0.76182  -18.96517
       O     1.85605    0.77068  -18.76879
      H1     2.02611   -0.07453  -18.28695
       H    -2.20145    1.78842  -12.24195
       O    -1.85644    1.05673  -12.74778
      H1    -1.18095    0.70638  -12.19262
       H     0.64424    0.48024  -10.94400
       O     0.42435   -0.09420  -11.71894
      H1    -0.19222   -0.77051  -11.40125
       H     8.03826    0.27122  -12.56683
       O     7.77763    1.12964  -12.90289
      H1     7.02653    1.50312  -12.36853
       H    10.10450   -0.59019  -11.95209
       O     9.29678   -0.99428  -12.26556
      H1     8.67201   -1.26258  -11.57867
       H     1.43430   -3.29308  -18.80364
       O     1.24775   -2.67506  -19.53123
      H1     0.29015   -2.43385  -19.50892
       H    -1.95751   -0.88936  -16.45214
       O    -1.55921   -0.01598  -16.18711
      H1    -0.75861   -0.16257  -15.64417
       H     2.85817   -1.46556  -16.13431
       O     2.17932   -1.62738  -16.79702
      H1     1.38358   -1.74856  -16.22437
       H     9.21317   -2.16444  -15.20261
       O     9.16985   -1.83935  -16.10463
      H1     8.53882   -2.36328  -16.55724
       H     3.50958   -7.50032  -15.36009
       O     4.09451   -7.58594  -14.56115
      H1     3.48305   -7.43364  -13.77499
       H     4.86991   -4.56858  -15.30856
       O     5.50808   -5.28939  -15.49572
      H1     5.12435   -6.18202  -15.30075
       H     4.40847   -2.14388   -8.04503
       O     4.39908   -1.22865   -7.66906
      H1     3.45618   -1.06648   -7.47038
       H    -1.29172   -2.17391  -10.04601
       O    -1.40060   -2.12627  -11.05586
      H1    -0.67259   -2.61579  -11.46472
       H     2.83390    2.17065  -15.81768
       O     2.54180    1.27486  -16.04175
      H1     2.22381    1.34580  -16.94168
       H     3.33707   -7.47018  -17.38877
       O     2.68336   -6.99760  -16.82753
      H1     2.64739   -6.08388  -17.14503
       H     3.53285   -4.45562  -17.89527
       O     2.63823   -4.14599  -17.71066
      H1     2.62962   -3.20921  -17.49858
       H     6.31352   -0.91404  -10.90060
       O     6.92516   -1.68292  -10.96834
      H1     6.88962   -1.93192  -11.93790
       H     4.88829   -1.31082  -15.13079
       O     4.55462   -2.21791  -15.04206
      H1     4.22554   -2.20724  -14.16005
       H    -0.35938   -6.50583  -12.24873
       O    -0.01887   -6.37451  -13.15720
      H1    -0.32486   -7.06282  -13.72983
       H     8.94189   -5.20811  -11.26194
       O     8.11507   -5.66034  -11.03413
      H1     7.75084   -5.21814  -10.26925
       H     0.47343   -4.62570  -12.76807
       O     0.64091   -3.66944  -12.69461
      H1     1.58808   -3.58339  -12.58959
       H     4.92888   -7.76421   -9.04511
       O     4.89052   -7.80206  -10.01341
      H1     5.79787   -8.00690  -10.32435
       H     4.70168    1.47332   -6.78939
       O     5.31254    2.17365   -6.67837
      H1     5.53397    2.15991   -5.73004
       H     1.31905   -0.17833   -8.58180
       O     1.54804   -1.06645   -8.21376
      H1     0.78144   -1.64839   -8.42827

