159
frame 9 | Written by MDAnalysis XYZWriter (release 2.4.3)
       H   -16.47892   -6.13625    9.29641
       O   -16.84971   -6.79357    8.66960
      H1   -17.29269   -6.27947    8.02167
       H   -13.11951  -12.45886    8.49309
       O   -13.47419  -12.96898    7.70384
      H1   -14.02738  -12.25675    7.24021
       H   -12.08867  -13.29661   13.30271
       O   -12.28053  -14.12771   12.79252
      H1   -13.22778  -14.28473   12.89408
       H   -12.43029   -9.74753   17.76786
       O   -13.29405   -9.58142   18.10138
      H1   -13.25296   -8.69364   18.46797
       H   -15.84466   -5.52247   13.62515
       O   -15.25713   -4.76946   13.60827
      H1   -15.07679   -4.35157   14.47546
       H    -7.74641   -7.59124    9.57648
       O    -8.68375   -7.73950    9.61388
      H1    -8.94238   -8.60494    9.90676
       H   -13.19699   -2.09768   15.13731
       O   -12.25726   -1.79489   15.13784
      H1   -11.78499   -2.53110   14.65423
       H   -14.04204   -9.35696   15.70131
       O   -14.26145  -10.22977   15.45123
      H1   -14.23889  -10.73562   16.31844
       H   -12.79541   -7.65600    9.22935
       O   -13.59281   -8.21073    9.45277
      H1   -14.39921   -7.70549    9.25546
       H   -11.09595   -4.59790   17.88445
       O   -11.64959   -5.00448   18.56181
      H1   -10.99777   -5.74918   18.77710
       H   -10.29530   -8.52105   17.57964
       O   -10.49417   -9.45124   17.38402
      H1   -10.60985   -9.43271   16.45991
       H   -15.74369   -3.42815   12.55650
       O   -15.75577   -2.75637   11.86939
      H1   -16.59725   -2.32981   12.04380
       H   -17.57256   -7.68829   10.01200
       O   -18.01064   -7.80415   10.89084
      H1   -18.91868   -7.71783   10.54058
       H    -9.91130  -10.62047    9.90749
       O    -9.11490  -10.22164   10.25461
      H1    -8.50765  -10.61468    9.62177
       H    -9.01835  -10.66003   12.48816
       O    -8.48639  -11.07700   13.19254
      H1    -7.56577  -10.98000   12.89574
       H   -11.78077   -9.65307   12.24500
       O   -11.63209  -10.64713   12.16195
      H1   -12.34587  -10.75061   11.50437
       H   -16.82647  -10.03125   13.44802
       O   -16.71446   -9.60949   14.29763
      H1   -15.82908   -9.83917   14.62215
       H   -10.21534   -5.32614    8.27350
       O    -9.63933   -4.65202    7.92645
      H1    -9.28956   -4.98876    7.10917
       H    -6.87627   -4.43574   11.41365
       O    -6.70577   -4.54803   12.40055
      H1    -6.59807   -3.72321   12.78737
       H   -15.05340   -4.91198   10.94053
       O   -14.82981   -5.30025   10.06446
      H1   -14.16921   -4.67559    9.69722
       H   -16.93154   -7.44733   13.96578
       O   -17.24721   -6.72269   13.37349
      H1   -17.14939   -7.14125   12.49757
       H   -12.90969  -11.52237   14.93219
       O   -12.19884  -12.09218   14.56248
      H1   -11.89536  -11.51103   13.80106
       H    -7.73357   -4.32795    8.84665
       O    -7.10717   -3.89041    9.46924
      H1    -6.23701   -4.22942    9.17590
       H   -10.68911   -3.57795    7.34934
       O   -11.36760   -2.92580    6.96845
      H1   -11.10205   -2.67251    6.06934
       H    -7.16753   -7.64637   15.72397
       O    -7.25222   -6.67609   15.67363
      H1    -7.83776   -6.47266   14.91460
       H   -12.73003   -0.87640   11.57476
       O   -12.78416   -1.58696   10.89801
      H1   -13.64645   -1.47252   10.48721
       H   -15.10616  -12.05932   12.69603
       O   -15.12472  -11.13733   12.40077
      H1   -16.08995  -11.02713   12.22612
       H    -5.52860   -7.80517    9.66926
       O    -6.00909   -7.28349    8.96521
      H1    -5.69892   -7.72819    8.12490
       H   -11.10780   -7.44372   11.27288
       O   -11.39602   -7.91711   12.03028
      H1   -11.83942   -7.27578   12.63553
       H   -14.27542  -11.17214   10.84880
       O   -13.70980  -10.94920   10.07546
      H1   -13.85062  -10.02134    9.79760
       H    -5.62753  -11.45174   11.74189
       O    -5.81900  -10.70422   12.31965
      H1    -5.27586  -10.69266   13.10872
       H   -10.79822  -12.77495   15.48542
       O   -10.07411  -12.83810   16.12955
      H1    -9.95972  -11.97103   16.48630
       H   -14.52462   -7.83951    6.07977
       O   -13.77936   -8.36314    6.45222
      H1   -13.88929   -8.33699    7.37793
       H    -8.86993   -6.25613   12.78368
       O    -9.25516   -6.39172   13.71599
      H1    -9.63989   -5.57345   13.80742
       H   -10.88947   -7.09065    6.30852
       O   -11.70160   -6.50194    6.29671
      H1   -12.38405   -7.17441    6.20148
       H    -6.78731  -10.02370   15.18344
       O    -7.22246   -9.35722   15.76034
      H1    -8.04958   -9.15842   15.30712
       H   -14.07064   -7.33048   16.70379
       O   -14.26658   -7.22872   15.73012
      H1   -15.22832   -7.07483   15.65866
       H   -11.07882  -14.57447    9.79379
       O   -11.15717  -13.59776    9.97368
      H1   -11.44097  -13.59386   10.87220
       H   -11.65015   -4.73871   13.57314
       O   -11.16209   -3.89654   13.74192
      H1   -10.73972   -3.58275   12.94705
       H    -9.31906  -13.73187   10.65648
       O    -8.50526  -14.19371   10.75323
      H1    -8.07911  -14.03106   11.57963
       H    -5.48849   -9.14829   11.65565
       O    -5.15925   -8.29706   11.32278
      H1    -5.39191   -7.62799   11.94741
       H    -9.60916   -3.08295   16.36177
       O   -10.08457   -3.91868   16.57517
      H1   -10.43355   -4.14787   15.66084
       H   -11.74062   -6.43593    7.92542
       O   -11.47481   -6.37127    8.83548
      H1   -12.18663   -5.76825    9.15832
       H   -10.13558   -8.65120   14.00233
       O   -10.05073   -9.33037   14.70896
      H1    -9.70804  -10.10311   14.22526
       H   -15.58962  -10.29947    6.76974
       O   -14.78555  -10.75936    6.47956
      H1   -14.21054   -9.99827    6.27638
       H    -8.65690   -2.75353   11.29151
       O    -9.42714   -2.28306   11.72623
      H1    -9.69446   -1.59795   11.06958
       H    -8.97885   -7.51654    7.87478
       O    -8.82542   -7.26834    6.93346
      H1    -9.15527   -7.99999    6.45881
       H   -13.75296   -4.64970    6.82801
       O   -14.71036   -4.92745    6.70382
      H1   -15.23312   -4.44137    7.32787
       H    -5.37535   -5.60451   13.29491
       O    -4.45953   -5.92232   13.30689
      H1    -4.39330   -6.52016   14.06397
       H    -8.89595  -10.33189   17.67047
       O    -8.44028  -11.14724   17.96351
      H1    -7.70869  -11.25393   17.34845
       H   -13.20427   -6.44403   14.62111
       O   -12.79388   -6.03055   13.83697
      H1   -13.71010   -5.76469   13.48661
       H   -12.55746   -3.23058    9.88513
       O   -12.65522   -3.83954    9.14598
      H1   -12.09884   -3.47154    8.47452
       H   -15.12840   -8.59344   12.65602
       O   -14.96672   -7.84509   12.04628
      H1   -14.23892   -8.08930   11.43627

