159
frame 12 | Written by MDAnalysis XYZWriter (release 2.4.3)
       H    -2.83285   11.36487    8.76566
       O    -2.15498   11.65715    8.13022
      H1    -2.09096   12.60641    8.05030
       H    -3.48953    3.75272   12.09276
       O    -3.84994    2.89470   11.74729
      H1    -4.60192    2.61177   12.34945
       H    -9.52360    5.43653   13.14856
       O    -9.46729    4.56940   13.55050
      H1   -10.18760    4.39717   14.16687
       H    -8.66603   10.48135   13.35240
       O    -9.22530   11.27784   13.50771
      H1    -8.64098   12.02248   13.33078
       H    -9.11759    8.51199    7.20716
       O    -8.65690    7.63606    7.05568
      H1    -8.96046    6.95149    7.66218
       H    -0.83357    6.66735    7.72119
       O    -1.01211    7.58019    8.05682
      H1    -0.41462    8.16426    7.59635
       H    -5.50343   14.94835   12.43150
       O    -5.77624   14.71560   13.34591
      H1    -6.68326   14.41533   13.29102
       H    -1.19671    2.51013   12.99272
       O    -1.21695    3.04901   13.79298
      H1    -0.30241    3.44424   13.85430
       H    -1.32505    3.42649   10.27283
       O    -1.56536    3.64645    9.40023
      H1    -2.40375    3.18958    9.36805
       H    -9.14388    6.68695   10.88497
       O    -9.42172    6.91827   11.74134
      H1    -8.74272    7.50728   12.08845
       H    -8.69915   14.69516   12.51083
       O    -8.24994   13.82523   12.52970
      H1    -7.65239   13.97946   11.75018
       H     1.05503    5.24613   13.29211
       O     1.59271    4.56421   13.78563
      H1     1.47199    4.80077   14.73598
       H    -3.33656    5.78390   11.60714
       O    -3.19106    5.44968   12.50016
      H1    -3.81310    5.90668   13.14162
       H    -5.46858    5.72368    8.86145
       O    -5.81630    6.36460    9.51337
      H1    -6.44018    6.95902    9.09491
       H    -7.80322    4.11041   11.30498
       O    -8.23583    3.41963   10.84992
      H1    -8.96280    3.23143   11.44286
       H    -5.79776   11.73899   12.80785
       O    -6.13768   11.44714   11.97530
      H1    -5.37512   11.29848   11.43115
       H     0.57474    9.69992   10.10889
       O     0.26932   10.58903    9.84571
      H1    -0.25059   10.55620    9.06723
       H    -0.62899    7.93592   16.94234
       O    -1.02371    8.63159   17.52203
      H1    -1.14250    8.21149   18.36171
       H    -1.99403    8.29627   12.20438
       O    -2.68169    8.72403   12.64452
      H1    -2.26811    9.56712   12.94594
       H    -2.40241    4.64667    5.69641
       O    -2.21385    5.58615    5.53790
      H1    -2.72952    6.05165    6.17347
       H    -4.85062    7.80024   10.41577
       O    -4.87610    8.47618   11.07089
      H1    -4.08076    8.42179   11.63169
       H    -9.20699    7.79147   15.86316
       O    -9.21285    6.84439   15.67639
      H1    -8.41305    6.72146   15.14488
       H    -2.45024    5.16240    9.45816
       O    -2.82723    6.07081    9.55632
      H1    -2.17454    6.59169    9.03574
       H    -6.50262    7.49273    5.07761
       O    -6.76868    6.62294    5.31435
      H1    -7.52883    6.79953    5.91644
       H    -6.96174    5.34040   14.59601
       O    -6.97787    6.22157   14.25574
      H1    -6.09468    6.52829   14.28313
       H    -5.34896    4.01342    6.63095
       O    -5.25862    4.92785    7.01722
      H1    -5.77006    5.46809    6.37686
       H    -8.78498   10.48850   15.39332
       O    -9.05631    9.80029   16.00856
      H1    -8.52749    9.87086   16.85856
       H    -6.15253    5.68718   10.99069
       O    -6.40507    5.16178   11.77130
      H1    -6.66333    5.78408   12.50202
       H    -2.47122    7.72847   17.28612
       O    -3.22632    7.11951   17.36416
      H1    -2.97842    6.36592   16.76635
       H    -2.81723    4.39085   15.39949
       O    -3.05313    4.62668   16.26355
      H1    -2.29235    4.33097   16.82178
       H     1.55669    7.55511    9.87791
       O     1.39010    7.91787   10.77806
      H1     0.84308    7.35150   11.27609
       H     0.40442    6.56340   15.93374
       O    -0.18199    7.17503   15.46495
      H1     0.28012    7.98617   15.25853
       H     1.30785   12.22573   12.28670
       O     0.52191   12.70264   11.98011
      H1     0.15855   12.19922   11.24154
       H    -5.59474    8.35575    7.41876
       O    -6.36099    8.82461    7.83566
      H1    -7.20857    8.45888    7.52567
       H    -6.98290    8.34190   13.21574
       O    -7.48867    8.93571   12.66566
      H1    -6.82175    9.17275   12.01738
       H    -2.97114   11.50081   14.19506
       O    -2.11766   11.05012   14.37661
      H1    -1.54270   11.74857   14.08204
       H    -8.18064    3.90212   14.62763
       O    -7.25700    3.63015   14.82914
      H1    -7.25113    3.97079   15.74368
       H    -0.69441    5.83362   11.99854
       O    -0.07587    6.22283   12.58655
      H1    -0.49062    6.31832   13.52276
       H    -9.83802    5.75339    9.00700
       O    -8.89271    5.83792    9.29374
      H1    -8.77117    4.88269    9.61622
       H    -1.20138   12.11211   16.93152
       O    -2.02818   11.63211   17.06152
      H1    -2.09525   11.13605   16.23621
       H   -12.36642    8.23115   10.86688
       O   -11.45779    8.42655   10.56263
      H1   -10.81811    7.96939   11.13007
       H    -5.05016   13.19943   14.49790
       O    -4.87755   12.24301   14.56141
      H1    -4.97959   12.01992   15.53432
       H    -2.97910   10.90863    6.70165
       O    -3.33652   10.22328    6.21158
      H1    -4.28105   10.49242    6.12322
       H    -5.09914   11.02319    9.31215
       O    -4.39423   10.69291    9.90801
      H1    -4.68279    9.76871   10.16569
       H    -6.38937   12.86928   10.62558
       O    -6.72461   13.57259   10.07663
      H1    -6.10616   14.27584   10.19270
       H    -4.74212    7.90234   14.94549
       O    -4.49256    7.43404   14.09418
      H1    -3.72816    7.91709   13.76982
       H    -5.12783    1.73194   14.06552
       O    -5.79006    1.81036   13.40840
      H1    -6.32768    2.54905   13.62036
       H    -6.43115   10.69560    7.99151
       O    -6.26531   11.62337    8.13454
      H1    -7.13689   11.93289    8.44788
       H    -4.37679   11.24691   17.65155
       O    -5.19459   11.61118   17.29195
      H1    -5.33081   12.41437   17.82279
       H    -4.31534    2.74448   10.05480
       O    -4.32123    2.89300    9.13454
      H1    -4.66914    2.07820    8.75998
       H    -5.90706    8.81691   16.83975
       O    -5.12403    8.90182   16.30004
      H1    -4.46254    8.38338   16.74582
       H    -4.77793    6.43434   18.15656
       O    -5.50058    6.27990   18.81037
      H1    -5.44749    7.06786   19.37547
       H    -4.17530    7.10165    7.93700
       O    -4.03514    7.71691    7.26061
      H1    -3.41613    8.39900    7.56358

