159
frame 4 | Written by MDAnalysis XYZWriter (release 2.4.3)
       H    -0.52526   11.07837    8.37140
       O    -1.39022   11.29975    8.57147
      H1    -1.34485   11.43237    9.55387
       H     0.11205    5.23647    5.79968
       O    -0.03032    5.31933    6.77809
      H1     0.41957    6.13227    7.12543
       H     3.68210   12.74287   13.88975
       O     4.21673   12.10420   13.47252
      H1     4.21582   12.36699   12.56221
       H     7.59035   15.22713    8.63852
       O     7.60151   14.36568    9.11070
      H1     7.14454   13.76861    8.53092
       H     2.96320    7.21500    6.05092
       O     2.61058    6.96933    5.20629
      H1     2.94845    6.09447    5.08627
       H    -1.66447   16.07566    9.05574
       O    -1.49723   16.73096    8.41442
      H1    -1.17600   16.13158    7.69483
       H     3.20237   18.17315    5.69657
       O     3.00105   17.91800    6.60569
      H1     2.15276   18.20997    6.76448
       H     4.18707   17.56823   12.84590
       O     3.28014   17.32971   13.19620
      H1     2.81953   17.00166   12.39375
       H     0.66069    9.36707    5.75779
       O     0.72935    9.84856    6.64708
      H1     1.53014   10.39583    6.65432
       H     3.30076   15.01503    6.76952
       O     3.73739   15.37467    7.60018
      H1     3.73476   16.30835    7.31280
       H     0.02122    6.02362    9.20726
       O    -0.62855    5.94480    9.98083
      H1    -0.52176    6.73577   10.56654
       H     3.58272   11.45290    7.39570
       O     2.72390   11.77570    7.20802
      H1     2.19343   11.66129    8.01321
       H    -0.62063   13.12034    8.52429
       O    -0.19902   13.98691    8.77862
      H1     0.04799   14.38573    7.91395
       H     1.97400   13.75447    4.74996
       O     2.14796   14.11312    5.61624
      H1     2.36917   13.36256    6.16325
       H    -1.89257    9.84317   12.57141
       O    -2.28228    8.99438   12.81675
      H1    -2.21443    8.99979   13.78639
       H     8.35191    6.78573    6.72655
       O     8.43732    7.08777    7.67120
      H1     8.01480    7.93962    7.71121
       H    -3.71085   11.72189   10.73883
       O    -3.04766   11.11817   11.15172
      H1    -3.37520   10.18483   11.16288
       H     3.06913    8.97320    2.40758
       O     2.13918    8.99389    2.08157
      H1     1.96062    9.89974    2.21552
       H     6.55387    6.21424    7.55273
       O     5.77374    5.61277    7.46166
      H1     5.06358    6.24004    7.63453
       H    -1.62571    6.77182    8.73259
       O    -2.16838    6.99770    7.91562
      H1    -1.71933    6.61080    7.16331
       H     4.51502   13.18250   10.46437
       O     4.51493   12.22874   10.63238
      H1     3.61396   12.00919   10.46697
       H     0.28155   18.52378   10.35225
       O     0.59332   17.74878    9.86523
      H1    -0.21804   17.27174    9.66275
       H    -0.72799   15.19229    5.94408
       O     0.00251   15.60899    6.40946
      H1     0.86515   15.12833    6.16737
       H     1.09947   16.50616   10.98861
       O     1.49025   15.88784   11.65857
      H1     0.87891   15.16655   11.80986
       H     5.60720   13.86237    3.93668
       O     6.26367   14.39514    4.33855
      H1     6.31899   14.10450    5.23668
       H     2.27787   14.92008   10.36126
       O     2.93273   14.38892    9.86260
      H1     3.09560   14.79751    8.95547
       H     5.90238   11.26221   10.75249
       O     6.60302   10.58994   10.82271
      H1     7.30824   10.89656   11.38654
       H    -1.46870   11.43249    3.44919
       O    -1.14352   11.80728    2.58169
      H1    -1.06153   11.09782    1.94377
       H     0.45250   10.04475   12.43058
       O    -0.16597   10.74833   12.32953
      H1     0.05417   11.35439   13.00974
       H    -0.97473   13.53380   11.90518
       O    -0.12211   13.67644   11.45149
      H1    -0.23709   13.67296   10.47433
       H    -3.43753    9.94457    9.12812
       O    -3.70754    9.05217    8.95722
      H1    -3.02322    8.59883    8.51075
       H     5.86142   11.29354    4.02178
       O     6.14002   10.41532    4.37876
      H1     5.45191    9.71731    4.17673
       H     2.23738   12.51947    2.63278
       O     2.68493   11.90532    1.99223
      H1     2.18584   12.02403    1.20668
       H     5.73042   10.68428    6.11498
       O     5.40786   10.80120    7.03100
      H1     6.07507   10.29969    7.58421
       H     0.31565   18.35616    8.14861
       O     0.20478   18.66758    7.24653
      H1    -0.20925   17.95613    6.76808
       H     8.39971   10.26817    7.89089
       O     7.70403    9.66282    8.22367
      H1     7.52888    9.88083    9.13733
       H     6.28366   14.92046   10.08585
       O     5.54423   15.47712   10.49224
      H1     4.63106   15.36941   10.14415
       H     5.88510   12.63604    7.04722
       O     6.10368   13.54302    6.92589
      H1     5.26018   13.93578    7.23832
       H     2.97350    7.25884   11.18685
       O     3.18192    8.15745   10.87871
      H1     4.02905    8.25285   11.33917
       H    -1.45931   10.39108    5.97802
       O    -1.92331   10.71441    5.17836
      H1    -2.79622   11.05282    5.48161
       H     2.00769    7.44755    8.07991
       O     1.04271    7.44235    8.01720
      H1     0.76604    8.32509    7.72347
       H     0.61951   13.20355    2.79810
       O     1.28339   13.84618    2.98304
      H1     0.92080   14.70565    2.76658
       H     0.72663    8.80251    3.36905
       O     0.49835    8.52076    4.26132
      H1     1.17692    7.96652    4.63674
       H     3.70910    6.21091    8.67226
       O     3.75320    7.13889    8.37334
      H1     3.76106    7.68039    9.16352
       H     0.32379    7.66989   12.35591
       O    -0.01296    8.11111   11.56413
      H1    -0.84713    8.51016   11.82679
       H     5.18063    9.15096   13.52498
       O     5.53790    8.82381   12.66346
      H1     5.80561    9.60204   12.17905
       H     2.81236    9.37342   12.26337
       O     2.69411    9.69100   13.22075
      H1     3.24604   10.49509   13.30142
       H     2.87098   14.64525   13.73817
       O     2.53763   14.13120   14.45285
      H1     1.72005   13.76115   14.06069
       H     1.72370   12.62513    9.90630
       O     1.92815   11.70773    9.92003
      H1     1.35825   11.39387   10.65586
       H     3.97535    7.85847    4.34546
       O     4.64211    8.39146    3.81022
      H1     5.28449    7.75886    3.48951
       H    -3.74619   15.48527    5.29498
       O    -2.77332   15.32495    5.14133
      H1    -2.57977   15.00614    4.29455
       H    -4.26859    8.31932    6.41333
       O    -4.05549    8.49336    5.49202
      H1    -3.35605    9.19567    5.38810
       H     5.68003   12.60918    1.96296
       O     5.12086   12.57962    2.77059
      H1     4.28669   12.27633    2.39480

