159
frame 4 | Written by MDAnalysis XYZWriter (release 2.4.3)
       H    13.47100  -13.15555    4.30671
       O    12.63301  -13.07572    3.79538
      H1    12.01540  -13.79670    4.03394
       H     9.07539  -13.28720   -0.58865
       O     8.78932  -12.91431   -1.42896
      H1     8.51218  -11.97369   -1.29064
       H    10.65001  -14.60159    2.61439
       O    10.88685  -15.12564    3.38266
      H1    11.54241  -15.68468    3.01287
       H    12.11477  -14.30521   -1.76793
       O    12.21891  -14.85861   -2.57193
      H1    12.67430  -15.62944   -2.27162
       H     0.02644  -16.65409    1.93991
       O     0.88768  -17.17238    2.01353
      H1     1.34753  -16.60759    2.59770
       H    14.01021  -17.03604   -5.49325
       O    13.41944  -17.69351   -5.08070
      H1    12.51997  -17.32977   -5.04100
       H     9.27077  -14.46540    6.97060
       O    10.13172  -14.33188    6.55122
      H1     9.88528  -13.93638    5.68120
       H     7.99203  -17.10134    0.38603
       O     8.14950  -16.32306    0.91690
      H1     8.21429  -16.61509    1.82221
       H     2.76260  -14.80779    2.10361
       O     2.95881  -15.39002    2.87588
      H1     3.67071  -15.86532    2.48844
       H     7.75186  -14.11324   -2.69421
       O     7.17213  -14.60729   -3.28973
      H1     7.74430  -14.69543   -4.10877
       H     7.09584  -10.14849   -1.53918
       O     8.01318  -10.30483   -1.38348
      H1     8.52773   -9.82011   -2.05233
       H     8.43735  -18.03576   -1.32017
       O     7.84038  -18.49988   -0.68221
      H1     6.97960  -18.49796   -1.15595
       H     5.57374  -13.69770   -3.17743
       O     4.67039  -13.36262   -3.15700
      H1     4.08432  -13.82706   -3.79644
       H     7.72208  -13.76680    3.01636
       O     6.95781  -13.79054    3.54558
      H1     6.11863  -13.88109    3.05322
       H     5.64080  -16.82470   -6.36496
       O     5.36578  -16.49089   -5.46545
      H1     4.45481  -16.26682   -5.50902
       H     2.39678  -15.19640   -0.19763
       O     2.31791  -14.35183    0.21319
      H1     3.00299  -13.77314   -0.14853
       H    13.65751  -17.85975   -2.47398
       O    13.82590  -17.15110   -1.82873
      H1    13.73932  -17.52070   -0.92007
       H    13.06468  -13.80314    0.52003
       O    12.12661  -13.94944    0.33035
      H1    11.84003  -14.86903    0.54151
       H     5.65695  -17.57229    1.94379
       O     4.98017  -16.88513    1.70525
      H1     5.35588  -16.14832    1.14430
       H     6.84864  -14.68929    0.73580
       O     5.83044  -14.59532    0.64101
      H1     5.67581  -13.81760    0.07083
       H     6.68929  -14.37277   -8.05446
       O     6.66569  -15.33572   -7.91837
      H1     6.94732  -15.68902   -8.77179
       H     8.03262  -18.36142   -4.93461
       O     8.25236  -17.75991   -5.68219
      H1     7.62399  -17.02892   -5.49181
       H     5.16602  -10.18386   -3.70244
       O     4.85923  -10.92144   -4.26513
      H1     4.83983  -11.75097   -3.79065
       H     6.24926  -16.29677   -3.01836
       O     5.78367  -17.13258   -2.91658
      H1     5.44944  -17.22565   -3.84784
       H     9.92282  -17.21398   -5.12939
       O    10.63876  -16.73500   -4.64769
      H1    10.49581  -15.84889   -4.64707
       H    10.85058  -13.70310   -6.89965
       O    11.06960  -14.61708   -7.16801
      H1    10.22058  -15.00605   -6.83270
       H     0.87831  -18.98396   -4.95836
       O     0.94462  -19.41774   -4.04900
      H1     0.20920  -19.09311   -3.50048
       H     7.43371  -18.53057    1.90649
       O     6.78378  -19.00680    2.46150
      H1     7.34510  -19.42144    3.09112
       H     4.31872  -17.30150    4.22573
       O     3.53971  -17.88587    4.35753
      H1     2.78638  -17.28308    4.54954
       H     6.44492  -19.52514   -9.52835
       O     6.74258  -19.03315   -8.69534
      H1     5.94041  -19.23243   -8.08613
       H    10.57952  -18.56351   -2.13843
       O    10.56999  -17.69906   -1.64081
      H1    10.53504  -17.07318   -2.38026
       H    13.01842  -13.95300   -3.78214
       O    13.48002  -13.27356   -4.31159
      H1    14.42537  -13.18746   -4.06275
       H    11.17170  -16.83863   -0.11691
       O    11.01655  -16.30479    0.68346
      H1    10.06460  -16.07570    0.68318
       H    12.62231  -18.97623    0.54473
       O    13.38847  -18.37337    0.53485
      H1    14.17770  -18.95693    0.77279
       H     2.97160  -17.07576   -1.25124
       O     3.11515  -16.46171   -2.02846
      H1     4.02144  -16.71966   -2.19103
       H     7.00891  -15.09369    5.02607
       O     7.27707  -15.48135    5.88582
      H1     7.38075  -16.42759    5.72299
       H     2.47710  -15.27882   -2.97861
       O     2.34258  -14.65954   -3.71908
      H1     1.65688  -14.11531   -3.46091
       H    14.33074  -19.08694   -5.57833
       O    14.76459  -19.74801   -6.10661
      H1    14.08750  -19.83972   -6.78330
       H     8.26331  -18.35458    6.58512
       O     7.61890  -18.30554    5.85286
      H1     6.96795  -19.06140    5.93493
       H     3.82174  -13.13994    5.21720
       O     3.01086  -13.63838    5.11797
      H1     3.05870  -14.26184    4.41440
       H    15.83105  -18.60645    1.63905
       O    15.49231  -19.36999    2.04369
      H1    16.01504  -20.08734    1.74476
       H     2.21747  -17.59997    0.80460
       O     2.81564  -17.81924    0.09590
      H1     3.58655  -17.95976    0.56692
       H    12.97670  -18.09216    2.34840
       O    13.07475  -17.82708    3.25442
      H1    13.74852  -17.12141    3.29931
       H     3.00584  -15.60833   -6.79780
       O     2.52988  -16.17522   -6.16891
      H1     2.46759  -15.72715   -5.28304
       H     2.86534  -11.64100   -1.18935
       O     3.57351  -12.28932   -0.98523
      H1     3.64652  -12.64722   -1.88547
       H     9.75758  -12.28365    2.13446
       O     9.76183  -13.07535    1.54121
      H1    10.66283  -13.03913    1.14944
       H     8.61356  -17.41451    4.35847
       O     8.74448  -16.95806    3.50270
      H1     9.54829  -16.37599    3.49171
       H    15.59978  -16.18242   -4.19957
       O    15.92151  -16.05982   -3.27479
      H1    15.21945  -16.43918   -2.74180
       H    10.62433  -16.29884    6.74916
       O    11.05096  -17.08090    6.99035
      H1    12.01084  -16.96009    7.04123
       H     8.04860  -15.02949   -6.57918
       O     8.63927  -14.81098   -5.85903
      H1     8.90154  -13.87751   -6.05338
       H    10.05522  -11.91217   -1.73899
       O    10.80809  -11.36247   -2.01622
      H1    10.92565  -11.57294   -2.95586
       H     3.24830  -18.43444   -8.49866
       O     3.19722  -18.69141   -7.56016
      H1     3.08178  -17.87632   -7.05079
       H     5.34659  -10.08116    0.23618
       O     5.29961  -10.26492   -0.69589
      H1     4.69274  -11.05740   -0.73773

