159
frame 10 | Written by MDAnalysis XYZWriter (release 2.4.3)
       H    18.78852  -11.57797   13.28293
       O    18.89079  -11.73955   12.36956
      H1    18.75036  -12.71526   12.32879
       H    17.29127   -1.62094   13.03386
       O    16.48247   -1.24973   13.38225
      H1    16.68308   -0.51520   13.97548
       H    15.36355  -11.92258   12.60677
       O    15.40353  -12.52378   13.43796
      H1    14.97833  -12.02838   14.12761
       H    12.71716   -7.17146   10.13162
       O    11.86248   -6.74941   10.26733
      H1    11.90189   -6.31551   11.14722
       H    18.92232   -3.34898   12.21279
       O    18.82348   -2.37641   12.23113
      H1    19.68086   -2.07187   12.47089
       H     8.16566   -3.78865   12.33799
       O     8.44340   -3.95251   11.42386
      H1     8.01526   -4.72778   11.05340
       H    14.98249   -8.27340    9.83538
       O    14.18061   -8.10405    9.29880
      H1    14.38042   -7.23885    8.90640
       H    11.45192  -12.79438   14.66982
       O    11.40528  -11.81485   14.63693
      H1    11.51335  -11.56742   13.69049
       H    11.30452   -8.99108    6.27005
       O    11.52517   -9.90820    6.15563
      H1    12.43169   -9.91136    6.46669
       H    10.89790   -4.03999    6.46461
       O    11.20647   -3.45611    7.18989
      H1    12.14466   -3.48756    7.06454
       H    17.39152  -11.87776   11.52051
       O    16.69732  -11.92685   10.85670
      H1    17.03872  -11.69317   10.00103
       H    13.05955  -10.93623   15.15302
       O    14.00132  -10.73081   15.22678
      H1    14.25288  -10.23281   15.99931
       H    14.73100  -11.86829   10.29486
       O    14.11547  -12.17570    9.61187
      H1    13.18841  -12.10324    9.97764
       H    18.18360   -4.74727    7.25292
       O    17.46715   -4.24880    6.90154
      H1    17.00374   -4.09797    7.73127
       H     9.05980   -9.59266   13.01880
       O     9.17761   -8.67340   12.73981
      H1     9.53043   -8.71332   11.82994
       H    16.00750   -1.20245   11.61723
       O    15.83744   -1.26369   10.67444
      H1    15.99894   -2.21812   10.44386
       H    11.41958   -7.22769   14.21908
       O    11.80260   -8.14082   13.94804
      H1    11.00089   -8.58321   13.61606
       H    13.48819   -1.21643   11.82892
       O    12.80064   -0.69110   12.27577
      H1    11.95142   -0.74683   11.78959
       H    16.87858   -8.66624    5.18131
       O    15.88744   -8.65015    5.25816
      H1    15.67324   -9.39615    5.85870
       H    14.14174   -9.60576    7.88271
       O    13.87430  -10.33607    7.27942
      H1    13.66832  -11.05537    7.87989
       H    13.79806   -7.89576   16.55507
       O    14.23549   -7.59478   15.73895
      H1    13.55145   -7.65035   15.09658
       H    12.82412   -4.00741   18.36611
       O    13.40255   -4.66154   17.87110
      H1    14.27280   -4.33745   18.12051
       H    13.88013   -2.58889    7.50986
       O    13.88603   -3.28795    6.83058
      H1    13.97076   -2.77595    6.01432
       H    19.00466  -10.36814   15.43204
       O    18.19317  -10.69259   14.93618
      H1    17.84074   -9.93026   14.45898
       H    15.54369   -4.32603    9.50002
       O    16.31714   -3.75512    9.33623
      H1    16.97369   -3.99304   10.04987
       H    10.94887  -11.71564   11.54091
       O    11.18270  -10.91191   12.09933
      H1    12.09025  -10.59784   11.77658
       H    10.44503   -9.98711   10.85092
       O    10.18247   -9.20204   10.34771
      H1    10.97537   -8.63817   10.29011
       H    18.98631   -2.19634    9.70916
       O    19.50719   -2.21285    8.92297
      H1    18.83436   -2.07937    8.21481
       H    10.20063   -5.63602   15.65025
       O    10.88051   -5.63317   14.92825
      H1    11.69798   -5.17578   15.30850
       H    14.33146   -5.06638    7.51633
       O    14.77147   -5.83751    7.92674
      H1    15.46804   -5.98447    7.29999
       H    13.40225   -9.27265   18.06436
       O    13.06229   -8.38586   17.98269
      H1    12.15232   -8.43957   17.92782
       H    18.85013   -3.65488   15.02631
       O    18.00725   -4.08956   14.89718
      H1    17.33281   -3.48346   14.59807
       H    11.40920   -6.94965    5.94606
       O    11.21706   -7.44397    5.15290
      H1    12.11496   -7.43297    4.73142
       H    15.52505   -6.83372   11.96686
       O    14.59079   -6.53815   11.88395
      H1    14.52954   -5.80060   12.47413
       H    13.53169   -9.80584   12.76955
       O    13.74446  -10.20424   11.91872
      H1    13.69055   -9.44461   11.30511
       H    13.04634   -2.44701    9.67535
       O    12.74376   -1.81417    8.99875
      H1    12.07668   -2.23024    8.57678
       H    19.29404   -5.57838    9.51315
       O    19.65374   -5.07362    8.77324
      H1    19.63386   -4.15527    8.98575
       H    12.50603   -3.28701   15.15568
       O    13.16719   -4.04073   15.36024
      H1    13.15447   -4.14747   16.33336
       H    17.54094   -7.88775   14.05926
       O    16.83959   -8.55264   13.92864
      H1    16.19677   -8.29064   14.60491
       H    10.93000   -5.13178    7.76177
       O    10.81499   -6.11557    7.67423
      H1    11.03201   -6.37367    8.56936
       H    15.98948   -6.84234   15.75304
       O    16.86077   -6.41327   15.82767
      H1    16.97052   -5.66898   15.14879
       H    17.82403   -5.52380   11.90158
       O    17.23001   -4.75915   11.72224
      H1    16.56698   -4.63353   12.42372
       H    17.94633  -11.67794    8.03424
       O    17.81383  -10.72668    8.17769
      H1    18.69640  -10.39894    8.37101
       H     6.59652   -6.84049   13.48284
       O     7.49803   -6.60289   13.77664
      H1     8.11435   -7.34366   13.50572
       H    18.89365   -5.96061   14.03966
       O    19.24009   -6.56688   13.38362
      H1    20.13389   -6.70811   13.69065
       H    14.46328   -3.90778   14.35942
       O    15.11762   -3.71545   13.63357
      H1    15.50023   -2.84327   13.71682
       H    12.31744   -3.84363   11.59786
       O    13.25691   -3.46035   11.34631
      H1    13.76647   -3.54036   12.15785
       H    16.18399   -9.11457   11.30034
       O    16.46612   -8.78180   10.41235
      H1    16.86708   -9.53514   10.05282
       H    19.09674   -7.89690    9.48109
       O    19.04944   -7.44066   10.39302
      H1    18.14656   -7.62099   10.65348
       H    18.20142   -6.23433   18.72952
       O    17.61228   -5.58228   18.33351
      H1    17.28471   -5.98428   17.48532
       H    10.13649   -4.83186   12.17000
       O    11.07544   -5.03500   12.35646
      H1    11.07890   -5.19921   13.31305
       H    10.87971   -1.45468   14.40184
       O    11.48563   -2.16941   14.24197
      H1    11.91054   -1.83709   13.41636
       H     9.62200   -9.82158    8.89572
       O     9.16593  -10.29805    8.15733
      H1     9.83240  -10.91316    7.79518

