159
frame 11 | Written by MDAnalysis XYZWriter (release 2.4.3)
       H     8.31442    5.45583  -13.97866
       O     7.74558    5.81166  -13.24527
      H1     8.21361    6.64721  -13.20613
       H     7.66323   10.16133  -11.91529
       O     8.65145   10.11658  -11.64251
      H1     8.71779   10.76070  -10.90793
       H    13.25902   10.16049  -13.11401
       O    13.40250   11.05392  -13.19993
      H1    13.97084   11.36646  -12.51549
       H    15.61765    3.74739  -18.85026
       O    15.59789    4.70760  -18.72900
      H1    15.73607    5.06919  -19.59462
       H    13.09906   12.42434  -15.61315
       O    13.64812   13.09151  -16.07795
      H1    14.46418   12.96576  -15.56277
       H    13.70547    0.96049  -14.91683
       O    14.27830    0.43998  -15.50833
      H1    15.18688    0.78519  -15.37260
       H    13.91858    1.83657  -18.69354
       O    14.35406    2.01716  -17.81066
      H1    14.22765    1.22354  -17.21514
       H    15.31354   13.31650  -10.81324
       O    15.70961   12.69963  -11.45819
      H1    16.62605   12.65625  -11.14249
       H    15.23898    7.90154   -8.01411
       O    14.39622    8.00580   -8.46856
      H1    13.94811    8.70755   -8.00024
       H    13.83505    7.36579  -16.06712
       O    14.77502    7.63542  -16.13258
      H1    15.30202    6.79722  -16.07147
       H    13.01923    4.08227  -11.37339
       O    13.97649    4.31302  -11.45556
      H1    14.24597    4.05310  -12.35245
       H    12.84669   11.11698   -9.80949
       O    13.72043   11.44173   -9.63386
      H1    13.67313   11.64130   -8.72991
       H     6.31130    8.85648  -16.39894
       O     6.51190    8.25895  -15.64360
      H1     6.21177    8.74449  -14.84411
       H    17.28834   10.87509  -15.04531
       O    17.84640   11.62956  -15.10844
      H1    18.12744   11.50353  -15.97868
       H    12.34392    7.56221  -14.76340
       O    12.15578    7.07566  -15.53236
      H1    12.06481    6.17134  -15.22936
       H    14.24773    7.76144  -13.21013
       O    13.34570    7.99427  -12.97281
      H1    13.23820    7.81764  -12.05138
       H     8.36073    4.87762  -15.96929
       O     9.18107    5.25139  -15.68138
      H1     9.14782    6.23037  -15.64861
       H     9.85314    0.97822  -15.98314
       O     9.11090    1.48422  -15.67987
      H1     9.09480    1.36436  -14.73990
       H    15.60373    8.94477  -15.13679
       O    16.01041    9.50519  -14.45766
      H1    15.31357   10.12366  -14.16848
       H     4.48693    5.21739  -14.33746
       O     5.33578    4.70321  -14.42445
      H1     5.97508    5.15513  -13.84469
       H     9.30779    9.12629  -12.95135
       O     9.62656    8.23119  -13.33789
      H1     9.57019    8.26406  -14.33315
       H    10.49092   10.41712   -8.83099
       O    10.96817   10.58027   -9.67019
      H1    10.90569    9.68870  -10.09900
       H    16.29643   12.32416  -14.42848
       O    15.53152   12.88171  -14.23422
      H1    15.52844   13.10748  -13.32441
       H     7.04534   13.33482  -17.74183
       O     7.98562   13.12827  -17.94020
      H1     8.31416   12.73876  -17.12596
       H     9.96488   13.30204  -15.90463
       O     9.87362   12.36756  -15.63641
      H1     9.55794   12.38257  -14.76813
       H    11.76559    7.69907  -18.47473
       O    10.90174    7.31721  -18.35650
      H1    10.82663    7.04457  -17.41952
       H    10.32725    4.20828  -16.90704
       O    10.91837    3.73704  -17.57994
      H1    10.87999    4.26179  -18.40643
       H     9.10794    2.94713  -10.66712
       O     9.13656    3.54880  -11.44492
      H1     8.43842    4.15381  -11.38178
       H     6.24500    4.77499  -15.86571
       O     6.72617    4.34264  -16.57426
      H1     6.43556    3.43014  -16.48821
       H    16.12499    8.56965  -11.73026
       O    16.28263    7.80693  -12.31374
      H1    16.50022    8.16816  -13.18330
       H    12.14634   12.52350  -12.92224
       O    11.71560   13.38979  -12.99036
      H1    12.09275   13.93561  -12.32453
       H    16.94178    4.68648  -15.19893
       O    17.08342    3.98443  -14.52863
      H1    17.09099    3.12640  -14.97247
       H    13.18274    2.63270  -14.51271
       O    12.96921    1.97722  -13.82583
      H1    13.77479    1.94564  -13.34552
       H     8.76935    6.60571   -8.34098
       O     9.00685    7.31810   -8.96034
      H1     8.26651    7.95843   -8.89265
       H    10.68698    8.08100  -11.79983
       O    11.18935    8.08232  -10.92967
      H1    10.63653    7.58040  -10.30475
       H     8.09794    8.07163  -15.86820
       O     9.07596    8.03992  -15.96873
      H1     9.31480    8.70163  -16.63251
       H     8.37880    0.90778  -12.87547
       O     7.79550    1.59787  -13.16057
      H1     8.22692    2.44553  -12.85510
       H    13.84949    3.29906  -16.49185
       O    13.29169    3.63017  -15.80244
      H1    12.43448    3.38143  -16.18291
       H    15.58776    9.11725   -9.73280
       O    16.21893    9.74842  -10.21382
      H1    15.79775   10.64841  -10.12484
       H    14.17961   12.44893  -17.91681
       O    14.48989   12.16374  -18.78456
      H1    15.42037   12.41436  -18.77081
       H     7.10346    5.48117  -19.15456
       O     6.37923    5.82364  -18.60212
      H1     6.62919    5.33828  -17.81269
       H    19.32853    7.72692  -16.68945
       O    18.47746    8.05214  -16.44569
      H1    18.41184    8.86557  -16.95080
       H    10.96451    2.32869  -18.80471
       O    10.81357    1.47006  -19.20708
      H1    11.66112    1.14378  -19.56488
       H     6.56357    8.71563  -18.32101
       O     5.84195    9.32602  -18.06791
      H1     6.01289   10.12207  -18.63049
       H    14.66251    7.63497  -18.27204
       O    14.11112    7.26880  -19.02641
      H1    14.35817    6.34841  -18.91481
       H    10.96317   11.48212  -16.63250
       O    11.81603   11.01635  -16.80360
      H1    11.66403   10.54958  -17.61396
       H    17.13547    6.59671  -16.40889
       O    16.57813    5.79900  -16.34034
      H1    16.44717    5.40688  -17.26034
       H    11.90106    2.52408  -12.51259
       O    11.66010    2.82193  -11.62779
      H1    10.71910    3.16026  -11.74704
       H    13.76314    1.79946   -9.43449
       O    14.62196    2.05973   -9.90868
      H1    14.38742    2.93176  -10.22171
       H     7.95171    7.06636  -18.71214
       O     8.25662    7.99862  -18.79323
      H1     9.23359    7.82738  -18.63307
       H    13.81521    6.33703   -8.67746
       O    13.53474    5.44175   -8.78177
      H1    13.70385    5.07543   -9.65366
       H     9.97485   12.92352  -12.88053
       O     9.02580   12.62955  -12.84467
      H1     9.06206   11.72233  -12.42828
       H    16.58764    5.99399  -11.59923
       O    16.93870    5.06351  -11.58534
      H1    17.18037    4.91971  -12.52968

