159
frame 0 | Written by MDAnalysis XYZWriter (release 2.4.3)
       H    -7.45684   -7.81567    2.44221
       O    -8.03462   -7.11317    2.06419
      H1    -7.99618   -7.35725    1.09573
       H   -16.57198   -4.89390   -0.94643
       O   -16.92451   -5.26730   -1.78488
      H1   -16.42922   -5.03200   -2.50549
       H   -12.53385   -0.39926    5.52404
       O   -13.43936   -0.40067    5.86317
      H1   -13.89144    0.35281    5.45272
       H   -16.98786   -7.27328    1.53206
       O   -16.13650   -7.72637    1.39498
      H1   -16.26056   -8.23863    0.61500
       H   -16.40550   -9.10782    3.80477
       O   -15.46444   -9.03869    3.59101
      H1   -15.40148   -8.67228    2.68073
       H    -6.83146   -4.69838    5.73485
       O    -7.77100   -4.78291    5.80449
      H1    -8.13918   -4.56671    4.96934
       H    -9.76672   -1.89735    1.84934
       O    -8.83416   -2.07119    2.09226
      H1    -8.52570   -1.37350    2.68874
       H    -9.93120   -8.03652    2.49154
       O   -10.55659   -7.99888    3.22577
      H1   -10.87180   -8.90870    3.39261
       H   -14.23965   -4.93799   -3.65149
       O   -15.19109   -5.00493   -3.96666
      H1   -15.19186   -5.75945   -4.60588
       H   -12.52027   -2.82726   -1.63721
       O   -12.44168   -1.93734   -1.25625
      H1   -11.99123   -2.19004   -0.43089
       H    -8.90134   -7.17954   -5.01253
       O    -8.54963   -6.75294   -4.19346
      H1    -8.59261   -5.81616   -4.17270
       H    -9.06085   -2.84291   -4.23210
       O    -8.39146   -2.52603   -4.85543
      H1    -8.40196   -3.21865   -5.56395
       H   -14.85944   -3.23187   -3.63781
       O   -15.07392   -2.46083   -3.06084
      H1   -14.38602   -1.79611   -3.29291
       H    -9.26408   -5.07585    2.82187
       O    -9.20123   -4.41820    3.51217
      H1    -9.21400   -3.60282    2.97181
       H   -11.98975    0.47552    2.41673
       O   -11.44300    1.30165    2.43411
      H1   -10.85653    1.05868    1.69604
       H   -11.81834  -12.90876    0.26137
       O   -11.12565  -12.47985   -0.25557
      H1   -11.47285  -11.56095   -0.32633
       H   -13.66976   -0.99432    3.64388
       O   -13.41377   -0.97456    2.71581
      H1   -14.21349   -0.77895    2.21434
       H   -10.79483   -1.68987    4.56123
       O   -10.98267   -0.77672    4.65791
      H1   -10.36129   -0.35708    4.05315
       H   -10.66062   -4.02461    4.33986
       O   -11.13730   -3.45602    5.03603
      H1   -11.39304   -4.09504    5.78008
       H    -8.14804   -2.97007    6.14247
       O    -8.68016   -2.18448    6.34827
      H1    -9.60241   -2.37855    6.11140
       H    -8.46367   -5.27136   -0.43969
       O    -8.93026   -4.49050   -0.16542
      H1    -8.23732   -3.96279    0.29156
       H   -14.86040   -4.02135    4.20828
       O   -15.46232   -3.52047    3.62623
      H1   -15.19041   -3.73337    2.71168
       H   -11.43433  -10.48885    4.97597
       O   -11.15141  -10.52585    4.03737
      H1   -10.52484  -11.29903    3.95996
       H   -13.64773   -5.95356    5.02277
       O   -14.16686   -5.21093    5.40336
      H1   -13.74024   -4.72024    6.16244
       H    -8.65744  -10.27107    4.23577
       O    -8.25058   -9.63215    4.85058
      H1    -8.86171   -8.92134    5.03193
       H   -12.14712   -8.65633   -4.60602
       O   -11.94541   -7.82190   -4.15137
      H1   -11.32414   -8.07242   -3.41521
       H   -11.59336   -4.34049   -5.40973
       O   -11.37428   -3.59499   -4.77791
      H1   -12.10389   -3.00206   -4.97473
       H    -8.64172   -8.01392   -1.28489
       O    -8.09494   -7.42228   -0.70140
      H1    -7.21507   -7.60412   -1.01240
       H    -8.69308   -6.41231    5.50782
       O    -9.55400   -6.89771    5.51104
      H1    -9.71308   -7.21924    4.57457
       H   -16.01070   -7.88482   -1.51015
       O   -16.96945   -7.98218   -1.46840
      H1   -17.24356   -7.07179   -1.57448
       H   -14.22605  -10.51146    3.34988
       O   -13.57251  -11.09349    2.83804
      H1   -12.73198  -10.99799    3.27531
       H   -12.08423   -9.13156    6.98206
       O   -12.72116   -9.38639    6.27501
      H1   -12.80844   -8.60970    5.76504
       H   -13.37640  -10.39933   -0.75635
       O   -12.46529  -10.12164   -0.43437
      H1   -12.46001  -10.26843    0.47480
       H   -11.37642   -3.32459    1.37335
       O   -11.42517   -2.34920    1.33412
      H1   -12.17186   -2.14370    1.93484
       H   -11.87962   -5.65952    0.80090
       O   -11.25198   -5.27831    1.44052
      H1   -10.55640   -5.00266    0.83790
       H   -17.76025   -4.27705    4.20719
       O   -18.07859   -3.97248    3.33748
      H1   -17.15950   -3.88063    2.98037
       H    -9.64142   -9.68541   -2.85756
       O    -9.77290   -8.75439   -2.63402
      H1    -9.42167   -8.21411   -3.38824
       H    -8.02608   -1.79196   -0.93101
       O    -7.60250   -1.22755   -0.23980
      H1    -7.96614   -1.64847    0.58140
       H   -16.98370   -1.09069    2.19796
       O   -16.13591   -0.96394    1.76515
      H1   -16.15085   -1.30387    0.84117
       H   -12.59471   -7.37818    3.80841
       O   -13.36138   -7.56528    4.36613
      H1   -14.00986   -8.08053    3.89831
       H   -15.68566   -2.11785   -1.48932
       O   -16.11116   -1.94805   -0.63869
      H1   -17.05864   -2.03480   -0.78650
       H   -12.12188   -5.44242   -2.01973
       O   -12.45936   -4.56368   -2.31538
      H1   -11.82076   -4.30381   -3.00224
       H   -12.26953    1.38427   -1.54223
       O   -13.03001    0.77752   -1.54481
      H1   -12.73102   -0.08650   -1.55200
       H   -10.42077   -1.97665   -2.11946
       O    -9.50629   -2.44720   -2.09928
      H1    -9.54384   -3.31834   -1.61777
       H    -5.74935   -9.71788    2.32985
       O    -5.92576   -8.77388    2.48648
      H1    -5.67670   -8.62661    3.42169
       H   -16.12051   -5.08771    5.25408
       O   -17.02504   -5.23354    5.51468
      H1   -17.14173   -5.07564    6.45758
       H   -11.00694   -5.92681    6.45847
       O   -11.43359   -5.47225    7.22352
      H1   -10.63758   -5.13321    7.67225
       H   -13.50823   -2.05364    6.60178
       O   -13.55443   -2.82599    7.21856
      H1   -13.20209   -2.53164    8.06529
       H   -12.87105   -7.64838   -2.41489
       O   -12.81663   -7.41596   -1.46117
      H1   -12.81100   -8.32234   -1.07749
       H   -14.42407   -6.98237    0.93703
       O   -13.84209   -6.30867    0.62733
      H1   -13.47409   -6.60168   -0.19887
       H   -15.04743   -4.96766    0.84554
       O   -15.79785   -4.39666    0.89611
      H1   -15.46011   -3.55884    0.58343
       H    -9.13730    0.22332   -0.40536
       O    -9.44587    1.08136   -0.16138
      H1    -8.74089    1.35971    0.43950
       H    -7.03881   -5.59957    1.85271
       O    -6.43067   -4.89730    1.70226
      H1    -5.97402   -5.09375    0.88796

