159
frame 5 | Written by MDAnalysis XYZWriter (release 2.4.3)
       H     9.27335  -12.09307    8.24962
       O     9.35659  -13.03550    8.11296
      H1     8.68420  -13.59859    8.49566
       H     5.86741  -10.07690    8.64667
       O     6.27789  -10.68983    9.22152
      H1     7.18995  -10.44021    9.42180
       H     7.26245  -17.88234   14.07970
       O     7.29683  -16.89125   14.16268
      H1     6.54724  -16.56648   13.63919
       H     7.77043  -17.31738   17.14012
       O     8.65517  -16.97871   17.10829
      H1     8.60505  -16.02231   16.84969
       H     9.04739  -13.61428   13.41380
       O     9.34322  -14.29400   14.05047
      H1     8.63414  -14.41353   14.69669
       H     8.38788  -11.22790   11.43438
       O     8.80330  -10.79727   10.65469
      H1     9.19186   -9.95777   10.95118
       H     7.37758  -20.12247   14.87721
       O     6.87308  -19.45592   14.43281
      H1     6.29630  -19.09010   15.11446
       H     9.27263  -14.21706    6.67868
       O     9.06176  -14.61372    5.83784
      H1     8.48262  -13.97693    5.36656
       H    12.63297  -13.56928   14.74687
       O    11.95800  -13.43660   15.42049
      H1    11.07348  -13.57770   15.01258
       H     0.00447  -12.77947   12.58240
       O     0.48250  -12.88706   11.75949
      H1     0.28436  -12.08888   11.21867
       H     5.51655  -14.24447   19.90980
       O     6.10698  -14.93749   19.48011
      H1     6.19997  -14.56831   18.61316
       H    12.22045  -11.54342   15.31850
       O    11.99396  -10.60436   15.06006
      H1    11.72287  -10.63842   14.13775
       H     5.00780  -12.64970   11.71438
       O     5.74166  -13.29404   11.92586
      H1     6.13592  -13.48938   11.09640
       H    10.22737  -15.93034   13.84834
       O    10.77487  -16.71186   13.97257
      H1    10.51326  -17.20234   14.76497
       H     4.15203  -19.96158    8.71397
       O     4.35637  -19.20805    9.32670
      H1     5.30298  -19.35908    9.53211
       H     9.36414   -8.25698   13.76999
       O     9.84150   -7.49753   13.33984
      H1    10.10033   -7.89346   12.50419
       H    -0.08544   -8.54980   12.43223
       O     0.55362   -7.88178   12.67592
      H1     1.33824   -8.20358   12.15233
       H     5.47108  -12.29895    8.92148
       O     4.93969  -13.11444    8.98612
      H1     5.65698  -13.75648    9.09387
       H     7.80085  -17.68190   11.25414
       O     8.05069  -16.77821   11.36432
      H1     8.31139  -16.60500   12.26659
       H     5.90185   -8.96797    6.87713
       O     6.49544   -9.64437    6.52478
      H1     7.29547   -9.09021    6.57842
       H     2.86288  -17.19301    6.99118
       O     3.45396  -16.99379    7.76714
      H1     3.69027  -17.84972    8.09575
       H    11.09562  -11.15889   12.32593
       O    11.52383  -10.27771   12.50440
      H1    12.48951  -10.41415   12.33522
       H     4.92933   -9.15825   14.65291
       O     5.47438   -8.95175   13.88165
      H1     5.02644   -9.18204   13.08525
       H     7.16610  -15.46808   15.51852
       O     7.57463  -14.67638   15.88753
      H1     6.82481  -14.08964   16.05331
       H    10.09445  -17.25773    9.01449
       O    10.00562  -17.75499    9.83158
      H1     9.35538  -17.34522   10.36448
       H    10.93133   -9.14724   11.29900
       O    10.26440   -8.53343   10.94410
      H1    10.78475   -7.70011   10.66527
       H     1.13799  -10.28735    9.70247
       O     0.30155  -10.58315    9.46796
      H1     0.39757  -11.26753    8.78555
       H    -0.92150  -11.11615   13.47091
       O    -0.65893  -11.92036   13.96043
      H1    -0.87467  -11.64469   14.88930
       H     6.05382  -11.68433    6.40978
       O     5.28693  -12.22216    6.22761
      H1     4.95907  -12.49436    7.10828
       H     3.81359   -9.40189   16.66068
       O     4.36258   -9.99010   16.07290
      H1     5.06382  -10.29309   16.59681
       H     8.02317  -11.30242   13.52599
       O     8.03941  -12.07453   12.97821
      H1     7.14446  -12.35048   12.86297
       H     2.86095  -18.55935   12.35997
       O     3.46288  -18.10513   11.82358
      H1     3.30597  -18.48256   10.96655
       H     5.42817   -7.39999    8.39715
       O     4.80960   -8.08172    8.06504
      H1     4.21731   -7.50226    7.55693
       H     3.24154   -9.45555   10.81808
       O     2.35198   -8.99182   10.75942
      H1     2.50524   -8.18863   10.23066
       H     4.82910   -5.62610   13.39927
       O     4.70335   -6.22847   14.17628
      H1     4.84080   -7.09950   13.77596
       H     5.33965  -10.34482   10.64862
       O     4.84355  -10.15843   11.42737
      H1     4.38080  -10.87231   11.73534
       H     0.67955  -13.92094   14.79092
       O     0.38229  -14.85975   14.84091
      H1    -0.34093  -14.91054   14.16962
       H     2.69479  -11.49086    6.04816
       O     2.60227  -11.08102    6.88915
      H1     2.91218  -10.18647    6.76119
       H     1.64099  -17.36207   16.79146
       O     1.79435  -16.39837   16.78740
      H1     1.19305  -15.96215   16.11024
       H     2.36595  -16.11423    9.05076
       O     1.60584  -15.76707    9.60202
      H1     1.90023  -15.44909   10.46774
       H     3.43615  -13.18793   15.84522
       O     3.00629  -12.52908   16.36552
      H1     3.33264  -11.65488   16.17139
       H     5.61324  -11.85250   17.69589
       O     5.50072  -12.76640   17.35028
      H1     4.56388  -12.80524   17.07654
       H     8.34249   -9.20466   15.55908
       O     8.14968   -9.46473   14.63722
      H1     7.31563   -9.04516   14.41218
       H     6.84609  -15.36987    8.39493
       O     7.23436  -14.78360    9.08200
      H1     7.54853  -15.45195    9.71489
       H     3.61707  -15.40049   16.02718
       O     4.27809  -14.84132   15.60105
      H1     4.32567  -15.05934   14.64587
       H     2.19944  -12.55081   11.35015
       O     3.11186  -12.27683   11.14510
      H1     3.20949  -12.40968   10.20227
       H     6.31322  -19.22054   12.76188
       O     5.90924  -19.23630   11.87218
      H1     5.03161  -18.84709   11.92125
       H     9.81894  -16.05521    7.14935
       O    10.53089  -16.38681    7.64777
      H1    11.32976  -15.97677    7.46675
       H     5.31601  -15.17591   12.45072
       O     5.01474  -15.79063   13.06907
      H1     4.37193  -16.41278   12.74150
       H     0.03807  -15.10405   10.20716
       O    -0.83816  -14.92398   10.52103
      H1    -0.63938  -14.16527   11.10608
       H     6.26306  -16.37222    6.68820
       O     6.36551  -16.77336    7.57507
      H1     5.45176  -17.08285    7.61000
       H    11.27392  -12.58761    7.93759
       O    12.15929  -12.21547    7.97722
      H1    12.54671  -12.28458    7.06067
       H    10.56395   -9.51857    9.13552
       O    10.64186   -9.78106    8.21207
      H1    11.47579  -10.28326    8.19973

