159
frame 5 | Written by MDAnalysis XYZWriter (release 2.4.3)
       H   -19.14563    1.19182   -4.13776
       O   -18.31628    1.65373   -4.24226
      H1   -17.72422    0.99088   -3.92811
       H   -13.14085    0.13280    4.05600
       O   -14.08506    0.10287    4.17674
      H1   -14.29254    0.88754    4.63049
       H   -11.73925    3.85116   -5.69181
       O   -11.01330    4.29629   -6.13189
      H1   -10.91789    5.17263   -5.72200
       H   -12.85569    3.59415   -0.93090
       O   -12.58334    4.10938   -1.69502
      H1   -12.99538    4.96511   -1.52790
       H   -19.96252    5.61917    2.28657
       O   -19.04898    5.81239    2.44156
      H1   -18.56066    5.74322    1.58519
       H    -9.70121   -1.41090    2.70779
       O    -8.83040   -1.76455    2.86954
      H1    -8.27095   -1.03857    3.15184
       H   -12.93861    7.47324   -1.97588
       O   -12.54806    6.65551   -2.42170
      H1   -11.61322    6.71467   -2.08505
       H   -19.32429    1.22151    4.31626
       O   -18.38521    1.41102    4.11607
      H1   -18.34616    2.34988    4.26495
       H    -8.17403    1.32722   -5.75319
       O    -8.56227    1.71497   -4.92917
      H1    -9.51439    1.82102   -5.05712
       H   -13.26887   -3.72233   -1.70683
       O   -12.40321   -4.01945   -1.53008
      H1   -11.92613   -3.31362   -1.01359
       H    -6.47962    4.75683    1.29692
       O    -6.85298    4.36926    0.51014
      H1    -7.42711    3.64785    0.83529
       H   -15.13157    3.23028    3.72098
       O   -14.58454    2.86337    4.46582
      H1   -15.02225    3.13547    5.29501
       H   -11.36727    1.50388    2.41088
       O   -11.57579    1.94237    1.53606
      H1   -11.06571    1.36179    0.94245
       H   -14.10822   -0.54598    2.33725
       O   -13.84282   -0.97885    1.52984
      H1   -14.30991   -1.83349    1.61375
       H   -11.74131   -1.23276    3.75026
       O   -11.39934   -0.31799    3.61861
      H1   -10.76416   -0.05612    4.30309
       H   -16.06110   -1.27444   -0.21456
       O   -16.87941   -1.26700    0.35232
      H1   -16.54767   -1.11486    1.21556
       H   -12.82672   -3.42775    3.65664
       O   -12.64428   -2.60375    4.10901
      H1   -13.47509   -2.09919    4.44198
       H   -15.48389    3.30462   -3.07512
       O   -14.63771    2.92759   -3.10137
      H1   -14.07630    3.52238   -2.57121
       H   -14.81918   -4.60479    1.66873
       O   -14.90628   -3.61704    1.58104
      H1   -14.79337   -3.43835    0.63861
       H   -12.93153   -1.53740   -5.30840
       O   -13.11597   -1.29279   -6.22236
      H1   -13.10373   -0.31566   -6.13670
       H    -7.05349    3.07304    3.55743
       O    -7.23627    2.53948    2.75203
      H1    -6.36082    2.44963    2.27318
       H   -15.07979    3.62125    1.70109
       O   -15.96663    3.52197    2.07379
      H1   -16.41958    2.76061    1.64227
       H   -14.51101    8.49157    0.22638
       O   -13.80350    8.85388   -0.23331
      H1   -14.11365    8.97115   -1.15917
       H   -13.02934    4.78925    3.29447
       O   -13.55818    5.01398    2.54728
      H1   -12.98435    5.08490    1.82335
       H   -11.00874    1.83862    7.76709
       O   -11.22439    1.08554    7.17706
      H1   -12.02190    0.74146    7.56415
       H   -11.13807    0.39392   -1.64247
       O   -11.79894    0.37427   -2.35475
      H1   -11.71230    1.18520   -2.86564
       H   -19.76211    5.38679   -2.25120
       O   -18.82096    5.19274   -2.01114
      H1   -18.43753    4.80733   -2.76203
       H    -7.57558    0.54506    4.89126
       O    -7.58272    0.31338    3.93943
      H1    -7.50137    1.15719    3.49986
       H   -10.71358    4.73660    2.25671
       O   -10.92621    4.68577    1.28414
      H1   -11.19659    3.74742    1.27701
       H   -11.42957   -3.04455    1.03104
       O   -11.71989   -2.27902    0.51220
      H1   -12.50778   -1.83298    0.89597
       H   -11.29010   -4.96408    1.44885
       O   -10.60009   -4.62556    2.04641
      H1    -9.84485   -4.97880    1.57491
       H    -8.04228   -2.49505   -0.09563
       O    -8.23665   -1.70842    0.35060
      H1    -8.58078   -2.04142    1.19011
       H    -7.62697    4.58884   -1.26321
       O    -8.09439    4.27876   -2.04153
      H1    -7.50989    3.65370   -2.47375
       H   -17.27730   -0.32321    4.48834
       O   -17.32665   -1.08682    5.07459
      H1   -17.28761   -1.83631    4.43931
       H   -18.41052    4.80605    3.83981
       O   -17.84132    4.25357    4.48166
      H1   -17.14003    3.92981    3.91399
       H   -19.50882   -1.12732   -1.92303
       O   -19.34535   -1.69681   -1.19384
      H1   -18.44876   -1.45217   -0.92446
       H   -13.67925    4.43884    5.29851
       O   -13.34818    5.35699    5.47032
      H1   -13.77629    5.69895    6.28935
       H   -14.19219    1.50475   -0.32629
       O   -13.93294    2.17175    0.35058
      H1   -13.13857    1.79324    0.72314
       H   -12.70528    2.46108   -4.47372
       O   -11.88075    2.53842   -4.05765
      H1   -12.05625    3.29434   -3.41937
       H   -13.54382    0.17711   -1.63023
       O   -14.46064   -0.01289   -1.38732
      H1   -14.96228    0.35526   -2.18738
       H   -14.67544    6.49284    2.18534
       O   -15.15190    7.38526    2.14241
      H1   -15.83260    7.06882    1.53958
       H    -9.75021    4.99759    3.90450
       O   -10.24276    4.16532    3.86989
      H1    -9.63476    3.50939    4.18208
       H   -17.20009    5.46865   -4.56457
       O   -17.14903    4.58810   -4.18958
      H1   -17.80324    3.99214   -4.59735
       H   -12.49630   -1.05898   -3.10019
       O   -12.93096   -1.77138   -3.59409
      H1   -12.71507   -2.53211   -3.13195
       H   -16.86919    0.62698    0.30968
       O   -16.74327    1.58174    0.19564
      H1   -15.83226    1.86927    0.24223
       H   -19.53742    3.77174   -0.65972
       O   -19.67525    3.11637    0.02121
      H1   -19.20576    2.32281   -0.32504
       H   -15.48114    1.28290   -3.58707
       O   -16.02099    0.48889   -3.53445
      H1   -15.72859   -0.06063   -4.31364
       H    -9.98135    5.76455   -0.30224
       O    -9.61572    6.61331   -0.53957
      H1    -8.98680    6.91184    0.14190
       H   -15.75961   -1.73997    5.86869
       O   -15.15234   -2.07925    6.49918
      H1   -14.44093   -1.45253    6.56917
       H   -16.94446    4.87750    0.92164
       O   -17.12143    5.69007    0.41755
      H1   -17.68563    5.46253   -0.35677
       H    -9.66567    3.72943    0.56402
       O    -9.14155    3.05813    0.03513
      H1    -8.72084    3.51874   -0.75870
       H   -15.78277   -3.21403   -1.17783
       O   -14.91672   -2.80337   -1.12750
      H1   -14.89165   -1.92122   -1.54147
       H    -9.39045   -0.35357   -0.03748
       O    -9.97770    0.38546   -0.12900
      H1    -9.40063    1.16175   -0.06179

