159
frame 8 | Written by MDAnalysis XYZWriter (release 2.4.3)
       H    14.16877  -13.33383    3.44933
       O    13.54433  -12.90718    2.88452
      H1    12.82759  -13.54210    2.61047
       H     8.17651  -12.08781    6.24679
       O     8.68570  -12.83964    6.64027
      H1     8.19765  -13.15562    7.39398
       H     5.12552   -8.55377    2.95691
       O     5.15763   -7.97335    2.15340
      H1     4.27923   -7.88903    1.72470
       H     5.23452   -8.29002    9.92708
       O     5.51040   -8.46265   10.86330
      H1     6.08705   -9.25600   10.78111
       H     9.40263  -12.97957   -1.17745
       O     8.54819  -12.65869   -1.50343
      H1     8.69539  -12.06023   -2.21830
       H    11.31477  -14.40646    1.46708
       O    11.66948  -14.66367    2.34127
      H1    12.07512  -15.56108    2.34982
       H     8.56339   -9.00886    7.12764
       O     8.28160   -8.54571    6.37420
      H1     8.92422   -7.90157    6.23093
       H     7.37336  -10.93329   10.82737
       O     6.79757  -10.76242   10.04924
      H1     7.39079  -10.43871    9.33652
       H     4.25029   -8.16740    5.57137
       O     3.90928   -7.42181    6.13375
      H1     4.41907   -6.63625    5.72832
       H     5.29069   -7.52059    7.45172
       O     6.04489   -7.62871    8.06009
      H1     6.77118   -8.08592    7.59205
       H     7.82357  -14.13504    5.66841
       O     7.49724  -14.90187    5.19491
      H1     7.68210  -14.75324    4.26854
       H     8.48001  -16.19568   -0.53534
       O     8.86562  -15.52120   -0.00655
      H1     8.66752  -15.83604    0.87470
       H     1.56443  -13.94155    1.64054
       O     1.89156  -14.50451    2.32206
      H1     2.85205  -14.37105    2.25792
       H     2.39285   -6.42400    3.42965
       O     1.85256   -7.23628    3.47253
      H1     1.97875   -7.63829    4.33069
       H     6.16721   -6.36588    1.66973
       O     6.79827   -5.85941    1.15979
      H1     6.76947   -5.01783    1.56358
       H    11.62845   -9.11306    5.81393
       O    11.92997   -9.94033    6.18436
      H1    12.71579   -9.59805    6.63268
       H     4.49695  -10.95487    1.48721
       O     5.26565  -10.62958    1.00166
      H1     5.30724   -9.67766    1.27242
       H     2.81429  -11.87558    3.23469
       O     2.99085  -11.25295    2.50155
      H1     2.09532  -10.75479    2.33202
       H     8.35703  -13.08991    2.86414
       O     7.92871  -13.92270    2.69211
      H1     8.61343  -14.57623    2.82283
       H     5.03314   -4.63835    5.96025
       O     5.33372   -5.11119    5.18906
      H1     4.69285   -4.96042    4.45838
       H    12.67289  -11.21912    3.40366
       O    11.89950  -10.62937    3.38947
      H1    11.69921  -10.53084    4.30139
       H     9.36820   -9.83058    0.48271
       O     9.40409  -10.79991    0.52041
      H1     8.73161  -11.08018   -0.02968
       H     4.42899  -15.18316    1.60256
       O     4.72823  -14.47568    2.18060
      H1     5.29567  -14.05207    1.53827
       H    10.61744   -6.97687    3.73484
       O     9.79452   -6.74146    3.24873
      H1     9.95189   -7.20198    2.38694
       H     5.62620  -12.24991    9.57722
       O     4.98098  -12.95973    9.41910
      H1     5.52648  -13.71985    9.14135
       H     7.39191  -14.46247    0.18735
       O     6.48147  -14.04155   -0.02217
      H1     6.65805  -13.21874   -0.51057
       H     7.60942   -6.55881    8.30564
       O     8.14048   -5.80850    8.69230
      H1     9.06211   -5.92487    8.46125
       H     7.51811   -9.99854    5.51711
       O     7.13539  -10.82355    5.18573
      H1     7.72622  -11.31241    4.63053
       H     9.26925  -11.13793    2.45041
       O     9.04478  -11.47701    3.28372
      H1     9.94504  -11.64209    3.52713
       H     4.07029  -17.23509    4.92259
       O     3.86803  -18.20565    4.98440
      H1     2.90770  -18.19131    4.84139
       H    12.04784   -5.17316    2.40054
       O    11.35940   -4.75078    2.99880
      H1    10.62819   -5.37557    3.24277
       H     5.10433  -12.13012    6.48536
       O     4.22567  -12.36564    6.88940
      H1     4.45989  -12.58036    7.83658
       H     7.06156   -4.99882    4.93685
       O     7.99767   -4.91172    4.95135
      H1     8.25669   -5.71417    4.43599
       H    11.97393  -14.39266    8.89834
       O    11.82200  -14.12139    8.01095
      H1    12.69787  -14.03592    7.61201
       H    11.62159   -6.88115    5.78449
       O    11.94185   -7.40920    5.00344
      H1    12.72828   -7.09086    4.55526
       H     3.02297   -7.87804    7.64891
       O     2.81438   -8.43474    8.38621
      H1     1.89786   -8.31575    8.73517
       H     3.40430  -14.37039   -1.29688
       O     4.30827  -14.72538   -1.42896
      H1     4.97511  -14.38203   -0.76851
       H     2.93120  -11.07490    7.58833
       O     2.03171  -10.99064    7.83915
      H1     1.98406  -10.10163    8.26465
       H     4.58467  -15.01853    5.44432
       O     4.07788  -15.37090    4.68507
      H1     4.66379  -15.05581    3.95946
       H     4.30279  -10.28960    3.84001
       O     4.75675   -9.52950    4.22721
      H1     5.55894  -10.02031    4.56307
       H    12.28851   -8.29038    0.85676
       O    12.21768   -7.94936    1.77832
      H1    11.97215   -8.71791    2.26917
       H     9.98808  -18.70905    4.76143
       O     9.18731  -18.16319    4.71790
      H1     9.23274  -17.74854    5.57436
       H     2.84319  -12.42383    5.61488
       O     2.40928  -12.80102    4.85055
      H1     2.81796  -13.69508    4.69634
       H    11.04348   -4.79378    6.44247
       O    10.72130   -5.59196    6.91393
      H1    11.10741   -5.51523    7.80486
       H     7.19599  -15.09359    8.30300
       O     7.28284  -14.18515    8.57308
      H1     7.23610  -14.17975    9.49124
       H     9.03339   -7.47966   -0.18394
       O     8.84395   -7.77154    0.70287
      H1     8.04342   -7.33503    1.01127
       H    10.74835  -12.21148    0.20247
       O    11.02946  -13.11071   -0.01182
      H1    11.93242  -13.05961   -0.40431
       H     9.72868  -18.11000    1.97456
       O     9.33667  -17.29848    2.27769
      H1     9.20438  -17.33683    3.25329
       H     8.62818  -16.70756    7.43443
       O     9.53547  -16.76127    7.23862
      H1     9.76041  -15.83009    6.99064
       H     6.63933  -16.63602    6.56917
       O     6.91208  -16.73806    7.48582
      H1     6.12153  -17.18700    7.82956
       H    11.51100  -12.31386    8.44515
       O    11.29065  -11.40500    8.48906
      H1    11.39117  -10.94489    7.66770
       H     9.30718   -9.44962    9.30762
       O     9.00093   -9.94586    8.53757
      H1     9.63376  -10.65788    8.41513
       H     4.64214  -10.17331   -0.51087
       O     4.18951   -9.51621   -1.14589
      H1     3.53842  -10.03897   -1.62028

