159
frame 5 | Written by MDAnalysis XYZWriter (release 2.4.3)
       H    -6.76764    8.84225  -17.86599
       O    -7.56562    9.11274  -17.44319
      H1    -7.84526    8.49001  -16.76719
       H   -10.21820   10.02004  -11.74074
       O    -9.53155    9.58925  -12.27144
      H1    -9.89979    8.70889  -12.40012
       H    -7.15537   11.17837  -12.29451
       O    -7.25064   12.18214  -12.27589
      H1    -8.13262   12.32681  -11.86001
       H    -4.84484   13.83768  -11.15064
       O    -5.43889   13.25454  -10.63226
      H1    -6.16295   13.03415  -11.26880
       H    -4.76158   14.55010  -15.52600
       O    -3.90662   14.99115  -15.70955
      H1    -4.00382   15.27321  -16.62153
       H    -3.33906   16.99173  -12.86014
       O    -3.02455   17.79172  -13.27393
      H1    -3.10408   17.64788  -14.22218
       H    -8.73289   10.11595   -8.99858
       O    -9.11059    9.28135   -9.34743
      H1    -9.80155    9.05122   -8.69769
       H     0.20503   16.35047  -13.42838
       O     0.45520   15.70611  -12.76790
      H1     0.48069   16.27403  -11.97894
       H     1.09563   12.21468  -12.80125
       O     1.17643   11.51880  -12.16191
      H1     0.38309   11.57003  -11.65398
       H    -3.61428   16.64729  -18.81491
       O    -3.47622   15.87480  -18.25603
      H1    -4.07969   15.16816  -18.47698
       H    -1.61644    6.41166  -14.33489
       O    -2.28656    5.76771  -14.14670
      H1    -2.27305    5.37571  -13.27685
       H    -3.06253    7.73772   -9.98261
       O    -3.86226    7.29940  -10.37621
      H1    -4.12284    7.73242  -11.14502
       H    -6.47419   11.89195  -16.45793
       O    -6.13436   11.42917  -15.69821
      H1    -6.48825   10.53229  -15.59532
       H    -5.60368    7.19319  -18.42399
       O    -5.43729    8.09355  -18.69041
      H1    -4.84909    8.66399  -18.15416
       H    -1.70886   17.32875  -15.97264
       O    -2.54132   17.79028  -15.87517
      H1    -3.12602   17.35132  -16.51610
       H    -1.52123   13.39152  -13.11586
       O    -1.63643   14.11111  -12.43875
      H1    -0.95381   14.76711  -12.61232
       H    -6.92948    7.18340  -14.33181
       O    -6.27090    6.73222  -13.80529
      H1    -5.82998    6.22585  -14.47520
       H    -2.37251    7.41717  -16.87776
       O    -3.04057    7.74777  -16.27289
      H1    -3.19541    8.67931  -16.36543
       H    -1.32287    9.68164  -13.62257
       O    -1.41082   10.10316  -14.48328
      H1    -2.31136   10.59006  -14.29385
       H   -11.44976   15.38415  -14.45864
       O   -11.01674   14.51614  -14.16864
      H1   -10.30798   14.60759  -14.79275
       H    -6.58060   14.49048   -9.77258
       O    -7.43251   14.77701   -9.45590
      H1    -7.29809   15.70805   -9.24146
       H    -5.80082    9.62234   -9.40713
       O    -5.85297   10.40495   -8.89151
      H1    -5.06304   10.93891   -9.04457
       H    -6.68006    8.75548  -11.90800
       O    -6.89350    9.38865  -12.62329
      H1    -7.88970    9.34478  -12.66132
       H    -4.06512    9.88206  -13.75897
       O    -3.89744   10.84440  -13.71118
      H1    -4.67342   11.21682  -14.16285
       H   -10.05217   10.07557  -14.23715
       O   -10.42130    9.66048  -15.03043
      H1   -11.18373    9.15393  -14.73035
       H    -5.56390   15.93226  -11.99328
       O    -6.28686   16.47415  -12.41471
      H1    -5.80615   16.80138  -13.20798
       H    -1.91937   11.96566  -10.21981
       O    -1.00720   12.27483  -10.45855
      H1    -1.11546   13.01963  -11.06549
       H     0.09148   12.20163  -18.98380
       O     0.00230   13.14777  -18.74797
      H1    -0.81608   13.26097  -18.30429
       H    -0.70916    8.59080  -15.14024
       O    -0.40938    7.65219  -15.13419
      H1    -0.27202    7.43832  -14.17271
       H    -8.01293   16.57952  -15.80139
       O    -8.52184   15.78216  -15.66679
      H1    -7.94722   15.18878  -15.03803
       H   -10.56859   11.03641  -16.83244
       O   -10.92981   11.07732  -17.74659
      H1   -11.90393   10.97765  -17.66566
       H     1.12874    8.67841  -15.05549
       O     1.93269    9.16787  -14.95415
      H1     2.14053    9.02622  -14.06282
       H    -0.78164    8.12588   -8.98237
       O    -1.67721    8.30780   -9.24155
      H1    -2.10573    8.81021   -8.47654
       H     1.66975   12.02881  -15.76501
       O     2.20654   11.85624  -14.94098
      H1     2.19373   10.86978  -14.92025
       H    -7.64388   12.98655  -18.26157
       O    -6.96637   13.38646  -17.62706
      H1    -7.34837   14.16443  -17.29917
       H    -3.76226    3.80762  -11.22212
       O    -3.36450    4.69813  -11.49725
      H1    -3.83614    5.38926  -10.95473
       H    -4.60408    6.09527  -16.14173
       O    -4.58953    5.34642  -15.55638
      H1    -3.81747    5.47078  -15.03829
       H    -1.43569   12.95176  -15.75017
       O    -1.96588   13.08062  -16.56988
      H1    -2.61771   13.72722  -16.31639
       H    -6.30141   13.55214  -13.55850
       O    -6.25607   14.40424  -14.01945
      H1    -6.50288   15.12519  -13.43157
       H    -9.09290    8.17546  -14.95397
       O    -8.58252    7.47984  -15.38683
      H1    -9.17317    6.81798  -15.81962
       H    -4.69571    6.39595   -9.11828
       O    -5.50636    5.87078   -8.84342
      H1    -5.30755    5.02981   -8.40301
       H     0.20994   12.39031  -14.39335
       O    -0.75210   12.51482  -14.29667
      H1    -1.01728   11.60342  -14.31642
       H    -6.73669    7.10911  -10.07227
       O    -6.85869    8.02756  -10.25286
      H1    -7.74411    8.37560   -9.99158
       H    -3.43833    7.60238  -14.28253
       O    -3.93175    8.09135  -13.58408
      H1    -4.81775    7.68257  -13.52201
       H    -3.06542   14.83851  -11.92821
       O    -3.91259   15.23479  -11.73513
      H1    -3.79473   15.43228  -10.76991
       H    -1.96171    8.21327  -12.66704
       O    -1.05033    8.08337  -12.41842
      H1    -1.05221    8.05941  -11.49076
       H    -8.09903   12.17114  -15.00579
       O    -8.99061   12.49059  -15.10285
      H1    -9.36435   12.57877  -14.24823
       H    -9.20770   11.85502  -18.79827
       O    -8.60141   12.30581  -19.40971
      H1    -8.16924   11.46559  -19.74702
       H    -4.03007   12.39533  -10.04129
       O    -3.42883   11.84657   -9.48164
      H1    -2.91562   12.46764   -8.93046
       H    -8.29209    4.83199  -14.30277
       O    -8.64813    5.16385  -13.45609
      H1    -8.03244    5.77304  -13.01771
       H   -10.20015   13.59192  -10.77932
       O    -9.39889   13.08018  -10.38657
      H1    -8.75367   13.75865  -10.28342
       H    -3.26747   10.92627  -17.01277
       O    -4.01410   10.30960  -17.04504
      H1    -4.75204   10.81222  -16.70847
       H    -5.71160   14.99307  -19.88106
       O    -5.33723   14.17472  -19.55584
      H1    -6.07512   13.87484  -18.97107

