159
frame 11 | Written by MDAnalysis XYZWriter (release 2.4.3)
       H    -7.66179    1.58704   11.73979
       O    -7.29505    0.80550   12.25876
      H1    -6.74335    1.33889   12.87055
       H   -16.18991    4.40187    7.67781
       O   -15.45367    4.32481    7.01507
      H1   -14.62377    4.10905    7.43245
       H   -16.65623    0.09704    6.23798
       O   -16.36182   -0.55271    5.59496
      H1   -15.90415   -0.02092    4.89175
       H    -9.07617    8.54763    7.08778
       O    -8.38700    7.83129    7.26105
      H1    -8.80814    7.26863    7.98107
       H   -10.74907   -0.38595   12.47591
       O   -11.07146   -0.86166   13.24851
      H1   -10.77282   -0.56650   14.09080
       H   -16.19567    2.37483    7.24644
       O   -16.52674    1.48771    7.31447
      H1   -17.48349    1.55739    7.17422
       H   -12.22105    6.97899    9.47140
       O   -12.17538    6.49910    8.64919
      H1   -12.39278    7.00421    7.87546
       H    -8.68926   -1.83968    2.42440
       O    -7.76982   -1.56125    2.47750
      H1    -7.78817   -0.61701    2.23910
       H   -13.78709    1.79802   10.81060
       O   -13.12751    1.94235   10.16610
      H1   -13.07406    1.11190    9.66450
       H   -10.05036    4.04529    5.11737
       O    -9.84089    4.64630    4.35550
      H1    -8.92451    4.47925    4.00617
       H   -11.18558    3.57874    7.19693
       O   -10.41592    3.26640    6.67492
      H1    -9.63876    3.55718    7.26124
       H    -8.77487    5.12512    1.97526
       O    -8.81368    5.84068    1.31446
      H1    -9.00404    5.32401    0.53798
       H   -16.59884    5.06791    4.69283
       O   -17.29388    4.48699    4.95696
      H1   -16.90247    3.93269    5.62173
       H    -8.69770   -3.95491    6.82914
       O    -8.65810   -3.07005    6.43135
      H1    -8.14626   -3.28163    5.64317
       H   -10.04318    0.57941    1.82701
       O    -9.54320    1.23931    1.32817
      H1    -9.52841    0.95377    0.39317
       H   -13.38902    0.32828    1.81164
       O   -13.69661    0.08195    2.65117
      H1   -14.01986   -0.81718    2.45382
       H   -11.44411    6.95671    3.93335
       O   -10.74645    7.16055    3.32693
      H1   -10.11933    6.47292    3.48898
       H   -12.15398   -0.68209    4.23787
       O   -11.22808   -0.95607    4.00596
      H1   -10.75466   -0.81541    4.83605
       H    -9.28844    0.65085   10.60396
       O   -10.20796    0.41572   10.84949
      H1   -10.55961    1.27975   11.00596
       H   -16.64713    1.32642    9.21953
       O   -16.61026    1.11198   10.14724
      H1   -16.05280    0.25924   10.05013
       H   -13.19999   -2.15035    6.12190
       O   -13.57045   -1.19342    6.17211
      H1   -14.54066   -1.18271    6.06529
       H   -10.53127   -3.14898    6.28726
       O   -11.49654   -3.26037    6.07708
      H1   -11.54027   -3.72704    5.18494
       H    -7.64668    3.82661   11.17926
       O    -8.31089    3.27363   10.77247
      H1    -9.08740    3.52773   11.26054
       H   -12.69416   -3.57551   11.64726
       O   -12.90113   -3.08125   10.81308
      H1   -13.86181   -2.83874   10.74112
       H    -5.11885   -1.72087    4.62812
       O    -5.32658   -2.16241    3.79054
      H1    -6.02848   -1.62379    3.41154
       H   -12.51913    7.89150    6.09792
       O   -12.51017    7.21308    5.34435
      H1   -13.52400    7.04805    5.29162
       H    -7.21257    0.39832    5.78655
       O    -6.48127    0.75738    5.28267
      H1    -6.17020    1.56748    5.67584
       H    -7.98810    3.53728    8.97718
       O    -8.04147    3.75080    8.04048
      H1    -7.15707    3.85158    7.61655
       H   -12.95959    3.42911    3.39051
       O   -13.79426    3.78496    3.08430
      H1   -14.02984    3.16430    2.36340
       H   -13.69703   -4.11069    4.63135
       O   -14.42342   -3.46791    4.54066
      H1   -15.15330   -3.76902    5.11676
       H   -10.83961    1.36032    6.41408
       O   -10.60933    0.47366    6.47407
      H1   -11.18976    0.08830    7.15806
       H    -6.80267    7.66307    4.53067
       O    -7.45883    6.98715    4.67852
      H1    -7.86350    7.14501    5.60850
       H   -12.26589   -1.30676    9.42918
       O   -12.71753   -0.55308    8.93120
      H1   -12.89725   -0.80148    8.03247
       H    -5.10642    4.16095    7.22561
       O    -5.31420    4.95694    7.70473
      H1    -5.38417    5.63980    7.02691
       H   -14.28705   -0.98739    9.48255
       O   -15.08501   -1.17148    9.95137
      H1   -15.56016   -1.84267    9.46415
       H   -11.92570    2.65577   11.12303
       O   -11.16103    2.90412   11.64168
      H1   -11.12928    2.61074   12.56456
       H    -5.66354   -2.73584    9.25128
       O    -5.05685   -2.11034    8.91635
      H1    -5.36151   -1.25279    9.15976
       H    -7.04663    1.14061    3.32776
       O    -6.79301    1.29981    2.35187
      H1    -7.57802    1.39725    1.85958
       H   -11.67516    3.60374    0.39524
       O   -11.66485    3.34687   -0.55815
      H1   -12.55947    3.57623   -0.91726
       H   -10.35242   -3.34555    1.60268
       O   -10.08899   -2.43159    1.75924
      H1   -10.54390   -2.18817    2.60272
       H   -14.38216    5.40161    4.36775
       O   -14.86417    6.01427    4.92453
      H1   -14.96859    5.47340    5.71041
       H   -10.26643    6.16930    9.17500
       O    -9.36830    6.44927    9.37697
      H1    -8.86916    5.65261    9.41417
       H   -12.35593    0.06909   -0.63072
       O   -12.55579    0.67632    0.06325
      H1   -11.77404    1.22319   -0.02521
       H   -10.66795   -5.51360    7.41989
       O   -10.06055   -4.98383    7.99625
      H1   -10.76947   -4.36306    8.22666
       H    -9.00392   -0.31730    7.65158
       O    -8.12018   -0.70769    7.80268
      H1    -8.25588   -1.60140    7.36633
       H   -10.70152    3.80995    2.90291
       O   -11.06237    3.35349    2.11405
      H1   -10.46788    2.62380    1.92159
       H   -10.84918   -2.90563   10.73619
       O    -9.96301   -2.54532   10.55216
      H1    -9.96173   -1.66797   10.82254
       H    -5.34352    3.70744    4.66591
       O    -5.28404    3.18587    5.51192
      H1    -4.35792    2.96084    5.40535
       H    -6.84869   -0.02686    9.15424
       O    -6.19288    0.34050    9.71254
      H1    -6.49793    0.29415   10.63204
       H    -6.51197    4.53710    2.83994
       O    -7.12395    4.50532    3.58274
      H1    -7.29051    5.39243    3.88412
       H   -13.33831    5.48970    1.17691
       O   -12.61094    6.14124    1.13930
      H1   -12.10890    6.01531    1.98276
       H   -12.50356    4.47695    8.48484
       O   -12.78743    3.67451    8.00091
      H1   -12.89867    3.01077    8.68988
       H   -12.96559   -3.70996    9.01940
       O   -12.95235   -4.34006    8.26481
      H1   -12.58545   -3.88940    7.49466

