159
frame 2 | Written by MDAnalysis XYZWriter (release 2.4.3)
       H    17.79852   13.65254   -6.97219
       O    17.19034   14.07917   -6.35164
      H1    16.47156   13.38979   -6.27210
       H    17.94986   16.87291   -7.75270
       O    17.03145   16.62061   -7.73076
      H1    17.15570   15.82828   -7.19203
       H    16.68539   16.65768  -12.54143
       O    16.92103   16.94181  -11.62028
      H1    16.56745   16.31043  -10.96930
       H    13.71197   15.24503    2.42882
       O    14.10252   14.42836    2.01061
      H1    14.57118   13.95585    2.71242
       H    12.23995   19.92612   -6.65034
       O    12.93325   19.22967   -6.85315
      H1    12.32027   18.45798   -6.99426
       H    15.06432    9.91818   -4.10978
       O    15.59321   10.73480   -4.24773
      H1    15.68773   11.12757   -3.37842
       H    19.96095   14.86110   -2.86596
       O    19.44258   15.33132   -3.52058
      H1    18.76451   15.80683   -2.95403
       H    15.78611   12.51353  -11.70385
       O    16.66589   12.26056  -11.42527
      H1    16.86557   12.87868  -10.70674
       H    17.69468   15.54005    2.29488
       O    18.57708   15.35214    1.82344
      H1    18.47202   14.46162    1.48254
       H    13.36327   12.36100   -9.42122
       O    14.07161   12.19275   -8.83098
      H1    14.78235   12.78167   -9.09516
       H    11.66823   18.43066    0.99348
       O    12.37979   18.59330    1.64411
      H1    11.99877   19.05506    2.41214
       H    12.58830   16.17075   -9.30041
       O    13.01377   16.66642   -9.99235
      H1    12.46721   16.36954  -10.78414
       H    15.33253   11.59976   -0.88450
       O    14.83655   11.00315   -0.30921
      H1    14.85745   11.30172    0.60732
       H    14.83165   18.58731   -2.77462
       O    14.27050   18.85135   -3.53611
      H1    13.97311   18.05554   -3.97224
       H    19.22078   17.28252    1.90937
       O    19.86897   17.98079    1.76688
      H1    19.42911   18.80012    1.95146
       H    10.90820   16.42300   -5.58842
       O    11.44213   16.01985   -6.26661
      H1    11.60521   15.12769   -5.93804
       H    13.34130   17.30500    2.90729
       O    13.11828   16.57965    3.45115
      H1    13.81756   16.60515    4.18932
       H    15.19270   18.28399   -0.29976
       O    15.98219   18.74476   -0.61914
      H1    16.61316   18.04851   -0.91540
       H    10.44577   15.80308   -7.80653
       O     9.66459   15.66255   -8.39766
      H1     9.88918   16.24640   -9.15030
       H    15.79152   18.31642  -11.10204
       O    15.30036   19.10756  -10.83182
      H1    14.39694   18.75993  -10.91751
       H    18.34527   19.98815  -10.81990
       O    18.79607   19.32616  -11.28951
      H1    18.15567   18.59252  -11.30077
       H     5.84607   16.51888   -2.33139
       O     6.76767   16.82300   -2.24419
      H1     6.80979   17.06236   -3.14426
       H    11.48194   18.07870   -1.96422
       O    11.66520   18.71497   -2.65363
      H1    12.64495   18.64874   -2.80129
       H    17.37919   19.49720   -4.73716
       O    18.27143   19.14983   -4.38195
      H1    18.73338   19.84049   -3.94416
       H    18.65303   11.35344   -6.50163
       O    18.18587   11.21300   -7.33072
      H1    17.54983   10.49874   -7.18739
       H    12.80263   10.85697   -3.18793
       O    12.65357    9.90507   -3.39885
      H1    12.07689    9.67994   -2.70865
       H    15.57977   19.38400  -13.00786
       O    15.40958   19.62436  -13.91172
      H1    16.32782   19.60796  -14.34783
       H    15.46163   18.87552   -9.02461
       O    15.67907   18.96390   -8.07834
      H1    16.25814   18.17341   -7.97887
       H    12.44782   19.95873  -10.81431
       O    12.60208   19.31904  -11.53041
      H1    12.40266   19.67920  -12.39699
       H     8.26169   18.63000   -7.93654
       O     8.75793   18.19554   -7.18606
      H1     8.95818   17.28435   -7.46808
       H     9.50454   12.53073   -6.21923
       O    10.35041   12.39307   -6.63655
      H1    11.02660   12.73662   -6.00748
       H    14.63913   15.87199    0.87557
       O    14.65058   16.63694    0.23510
      H1    13.80089   16.58199   -0.20368
       H    17.16059   11.68601   -2.77429
       O    16.44094   12.12702   -2.27780
      H1    16.46097   13.05864   -2.64361
       H    18.10544   12.47927   -8.43832
       O    17.84979   13.09028   -9.11423
      H1    18.62153   13.51680   -9.46155
       H    14.50220   15.50351   -9.82108
       O    15.36778   15.13512   -9.73422
      H1    15.66740   15.48325   -8.89361
       H    12.03788   16.04250   -1.72276
       O    12.00925   16.52290   -0.89407
      H1    11.22320   16.10710   -0.42275
       H    19.26751   15.33217  -11.29972
       O    19.57948   15.02357  -10.42051
      H1    19.14419   15.62829   -9.80186
       H    10.85343   15.58569   -3.07288
       O    11.29621   14.83717   -2.73315
      H1    10.85072   14.52783   -1.92357
       H    10.76712   13.18726   -0.01616
       O    10.09002   13.31095   -0.74910
      H1     9.48788   14.00326   -0.43291
       H    15.01935   11.80811   -5.47720
       O    14.94328   12.53918   -6.10187
      H1    14.59970   12.16499   -6.94745
       H     6.08304   18.05258   -5.25383
       O     6.92283   17.82091   -4.94685
      H1     7.55417   18.03188   -5.63598
       H     8.99861   17.82765    1.18167
       O     9.31995   18.12746    0.32346
      H1     9.21464   19.09126    0.32743
       H    14.05340   16.91515   -5.91668
       O    13.94704   16.58813   -5.01946
      H1    13.13905   16.03288   -5.10172
       H    11.16402   18.40137  -11.04982
       O    10.35526   17.97125  -10.79442
      H1     9.61069   18.44710  -11.15102
       H    10.60413   17.86274   -3.76623
       O    10.04733   17.18862   -4.22809
      H1     9.12110   17.61150   -4.17409
       H    12.62193   13.03294   -1.76848
       O    13.10520   12.30741   -2.07432
      H1    13.28848   11.73403   -1.27824
       H    10.80053   16.46763  -12.10763
       O    11.45353   15.77502  -12.13036
      H1    11.87938   15.68477  -12.97121
       H    11.84046   15.61399    2.21821
       O    11.23185   15.28899    1.56608
      H1    11.39584   14.34826    1.65515
       H    17.08470   16.84032   -2.71335
       O    17.70934   17.43422   -2.24822
      H1    18.03231   18.08359   -2.87587
       H    12.87160   13.16429    1.25246
       O    12.02197   12.67714    1.04918
      H1    12.17211   11.82199    1.51315
       H    15.73518   19.55426   -6.35224
       O    15.83581   19.78386   -5.40559
      H1    15.12447   19.24246   -4.91034
       H    15.51765   16.11610   -4.37702
       O    16.32200   15.79564   -3.99773
      H1    16.71374   15.43199   -4.84702
       H    13.15309   12.94414   -5.04977
       O    12.44508   13.58728   -5.06173
      H1    12.09442   13.69884   -4.13472

