159
frame 11 | Written by MDAnalysis XYZWriter (release 2.4.3)
       H   -16.66800   14.04404   19.18439
       O   -16.21216   13.19214   19.00502
      H1   -15.66411   12.88515   19.71691
       H   -13.51961   10.63280   11.70597
       O   -14.24877   10.25902   12.20138
      H1   -15.07657   10.65691   11.94005
       H   -10.08190   14.51179   15.84172
       O    -9.50935   13.77773   16.07062
      H1   -10.08473   13.33340   16.66992
       H    -8.81007   11.00078   13.52522
       O    -9.45348   11.70599   13.54938
      H1    -8.87079   12.53117   13.46694
       H   -11.75211   13.70542   14.10461
       O   -11.90955   12.79234   13.96264
      H1   -11.14280   12.42950   13.61072
       H   -10.16593   19.28039   16.65098
       O   -10.22935   18.33497   16.66103
      H1    -9.83635   18.03032   15.82143
       H   -12.13064   14.68460   18.66034
       O   -11.27533   14.24255   18.56825
      H1   -10.66673   14.97366   18.74839
       H   -13.60049   11.97797   16.74658
       O   -13.85955   12.47171   15.93348
      H1   -13.03687   12.52024   15.38547
       H   -15.66062   13.36729   15.03029
       O   -16.29879   13.93770   14.58478
      H1   -16.98501   14.04674   15.23487
       H    -4.93622   15.65150   12.43484
       O    -5.31211   15.20296   13.18427
      H1    -6.26719   15.21243   12.98418
       H   -10.43595   16.87208   11.98050
       O   -10.18118   15.92839   12.08963
      H1   -10.99356   15.43536   11.94416
       H    -9.54564   17.15731   18.18237
       O    -9.10805   16.52066   18.73724
      H1    -8.62290   15.95086   18.08229
       H   -13.67344   18.31294   17.00202
       O   -14.10808   19.16109   17.01300
      H1   -13.65288   19.62340   16.35522
       H    -9.35369    7.11058   10.95306
       O    -9.73715    7.49215   11.73237
      H1    -9.24647    8.31782   11.86730
       H   -11.72521   17.74449   16.81388
       O   -12.52855   17.16087   16.78053
      H1   -12.58464   16.73678   17.64849
       H    -8.80779   14.94250   12.62675
       O    -8.22308   14.16728   12.77572
      H1    -7.68651   14.26046   11.92586
       H   -15.20385   17.71807   16.35717
       O   -15.99249   17.12173   16.22190
      H1   -15.83800   17.05271   15.29603
       H   -11.48036    7.43580   17.12435
       O   -12.16785    7.71168   17.72637
      H1   -12.11334    7.09169   18.46276
       H   -16.06241    7.85466   17.82213
       O   -15.82052    8.68644   18.24871
      H1   -15.81930    9.37643   17.51885
       H   -13.56633   16.07447   14.22022
       O   -14.45595   15.90636   13.79553
      H1   -14.81945   15.29893   14.39848
       H   -13.17047    7.55563   15.53490
       O   -13.16464    7.30095   14.59040
      H1   -13.10396    6.35554   14.57740
       H    -2.74538   14.40535   17.45335
       O    -3.15965   13.79677   16.86812
      H1    -3.31019   13.03134   17.48817
       H   -14.50505   10.48453   15.17065
       O   -14.93619    9.61472   15.30788
      H1   -14.39708    9.06178   14.70319
       H    -7.39089   10.47444   16.83486
       O    -7.62793    9.70265   17.29415
      H1    -7.47415    9.85786   18.18600
       H    -5.81964   11.98330   12.79011
       O    -6.28252   11.58864   12.02631
      H1    -5.57446   11.41539   11.39599
       H   -13.85192   17.21086   12.02260
       O   -14.16114   18.11141   11.80155
      H1   -13.49788   18.77179   11.97506
       H   -10.96305   15.93165   14.13961
       O   -11.66114   15.50426   14.62378
      H1   -11.78748   16.05593   15.43008
       H   -12.43208   13.69270   12.33393
       O   -12.53759   14.35815   11.59708
      H1   -12.34803   13.96273   10.75344
       H   -14.32420   14.66279   18.63050
       O   -13.79261   15.34347   19.03992
      H1   -14.28666   16.11423   19.21022
       H    -8.22395   17.00936   14.81284
       O    -9.12681   17.20805   14.48614
      H1    -9.09426   18.00592   13.94703
       H   -12.99360    9.83474   17.93514
       O   -12.62325   10.70956   17.80264
      H1   -11.85007   10.47662   17.18427
       H   -10.32318    8.33971   15.74578
       O   -10.07802    7.43660   15.89951
      H1   -10.26566    6.95781   15.11024
       H    -7.35155    7.02661   14.77656
       O    -6.98712    7.06512   13.85307
      H1    -6.00807    7.05065   13.94175
       H   -10.18018   10.95977   15.58615
       O   -10.41094   10.29145   16.22095
      H1    -9.65065   10.32262   16.82920
       H    -8.37793   14.49892   16.90907
       O    -7.62715   14.84331   17.46989
      H1    -7.43675   15.60416   16.89184
       H    -7.30586    8.67442   12.72081
       O    -7.92601    9.42684   12.68096
      H1    -7.50724   10.18490   12.25757
       H    -3.77931   11.05389   14.62067
       O    -2.93312   10.69648   14.98661
      H1    -2.43508   11.51693   15.11515
       H    -9.14950   19.43172   12.15504
       O    -9.91765   18.98151   12.55179
      H1   -10.71186   19.54071   12.34721
       H    -2.71871   11.14121   18.25409
       O    -3.52368   11.31146   17.81065
      H1    -3.30573   11.10465   16.91185
       H   -14.71590   14.36726   11.66890
       O   -15.46948   14.03149   11.17347
      H1   -16.16452   14.76515   11.14916
       H   -17.09882   12.67447   17.48150
       O   -17.84072   12.25453   17.04276
      H1   -18.40238   12.99411   16.71381
       H   -12.98701    8.06440   11.27103
       O   -12.12600    8.43855   10.96296
      H1   -11.34318    8.05761   11.40413
       H    -4.95488   13.44224   14.18977
       O    -5.00317   12.50140   14.40159
      H1    -5.32069   12.49863   15.33146
       H    -6.28964   16.08179   15.04495
       O    -6.77573   16.72526   15.56300
      H1    -6.18574   17.50484   15.64232
       H    -6.61347   13.12764   10.93088
       O    -6.60143   14.02652   10.64444
      H1    -5.83158   14.39667   11.09033
       H    -5.07445   17.00998   19.27583
       O    -5.63809   17.25845   18.54447
      H1    -5.26719   18.13653   18.31999
       H   -10.96898   12.45158   19.20146
       O   -10.29104   11.96688   19.71959
      H1   -10.45222   11.05600   19.61424
       H    -8.89222   13.28172   10.68831
       O    -9.71382   13.16430   10.16333
      H1   -10.16850   12.54277   10.80112
       H    -5.93634   12.06430   17.56001
       O    -6.62139   12.11734   16.86827
      H1    -7.13936   12.91177   17.08506
       H    -7.24433    6.71869   17.20088
       O    -7.79419    6.36105   16.44999
      H1    -8.59092    6.90015   16.34136
       H    -5.83810    8.56977   16.10054
       O    -5.06784    8.04774   15.86805
      H1    -4.32195    8.34365   16.46010
       H   -12.58878   11.72322   10.16656
       O   -11.81264   11.18109   10.40886
      H1   -12.00795   10.22961   10.48934
       H    -5.98190   14.30377   18.61972
       O    -5.42906   13.72759   19.13876
      H1    -6.14839   13.13977   19.50373

