15
frame 1 | Written by MDAnalysis XYZWriter (release 2.4.3)
       H     3.31214   -2.09059    4.43880
       O     2.55013   -1.54835    4.52486
      H1     2.94058   -0.62734    4.60050
       H     6.26908    1.63212    2.15337
       O     6.33521    1.40387    3.07498
      H1     6.90077    2.06177    3.51383
       H     5.20404    1.29782    6.81835
       O     4.23534    1.35072    6.63159
      H1     4.07307    2.20125    7.10697
       H     0.61744    2.37324    2.66832
       O     1.44537    2.79217    2.90053
      H1     2.06326    2.10649    3.17864
       H     3.66665    1.30649    4.83663
       O     3.55540    1.11993    3.84409
      H1     4.48505    1.24470    3.58182

