15
frame 1 | Written by MDAnalysis XYZWriter (release 2.4.3)
       H    -5.79188    5.14144    2.00488
       O    -6.02125    5.08821    1.07729
      H1    -6.96041    4.95981    1.02948
       H    -7.67959    2.89232    2.53092
       O    -7.35065    2.21806    1.94050
      H1    -6.40485    2.33007    1.90329
       H    -8.32826    0.18872    5.17911
       O    -8.51351    0.21739    4.23454
      H1    -8.00876    1.05981    4.03575
       H    -9.00206    4.29915    4.25487
       O    -8.76747    3.43160    3.85936
      H1    -9.57539    2.93521    4.04559
       H    -9.38392    0.07860    0.49760
       O    -9.51369    1.03969    0.45956
      H1    -8.74237    1.35206    1.01488

