15
frame 1 | Written by MDAnalysis XYZWriter (release 2.4.3)
       H     5.42979   17.67278  -13.33554
       O     4.62944   18.24172  -13.32362
      H1     4.15545   18.24027  -12.52465
       H     7.43783   16.21145  -13.14440
       O     6.55042   16.18160  -12.72582
      H1     6.60273   16.11990  -11.75532
       H     4.35575   16.66243  -14.97560
       O     3.89225   16.54308  -15.85384
      H1     3.29726   17.32574  -15.99264
       H     5.27086   13.81023  -15.45650
       O     6.24206   13.87696  -15.52755
      H1     6.60609   13.02151  -15.25550
       H     1.09057   17.79117  -13.30675
       O     1.53536   18.55687  -13.56020
      H1     1.95030   18.53731  -14.42903

