15
frame 1 | Written by MDAnalysis XYZWriter (release 2.4.3)
       H     9.35931    1.21894   -3.95768
       O    10.19868    0.88258   -3.52469
      H1    10.99908    1.25263   -3.90355
       H    12.49673    2.87970   -4.17135
       O    12.81013    1.93651   -3.93574
      H1    12.55859    1.59786   -3.04969
       H     9.18332    4.87093   -3.19653
       O     9.57318    4.46708   -4.01926
      H1    10.45821    4.11354   -3.86476
       H     8.05930   -0.97230   -2.23942
       O     8.27503   -1.08880   -3.15723
      H1     9.08866   -0.59445   -3.40964
       H     9.89677    1.62867   -1.31311
       O     9.39442    1.38581   -0.51394
      H1     9.92368    1.69060    0.19138

