15
frame 10 | Written by MDAnalysis XYZWriter (release 2.4.3)
       H     7.27808  -15.28784  -17.18769
       O     7.74688  -14.46563  -17.17297
      H1     7.90227  -14.23385  -18.12925
       H     9.52468  -13.26829  -17.47384
       O    10.32777  -12.94516  -17.90046
      H1    11.16281  -13.35353  -17.51384
       H    10.70471  -16.89412  -16.30186
       O     9.80791  -16.95058  -16.52604
      H1     9.53534  -16.42386  -17.30724
       H     6.27727  -17.73166  -17.72452
       O     6.01594  -16.82823  -17.79668
      H1     5.66031  -16.69325  -18.71880
       H     6.21794  -13.61346  -16.36500
       O     5.71767  -12.90564  -15.88810
      H1     4.80663  -13.16400  -15.83351

