15
frame 1 | Written by MDAnalysis XYZWriter (release 2.4.3)
       H   -10.97755   19.28009   18.37451
       O   -10.28529   18.65064   18.57521
      H1    -9.43227   19.07438   18.25936
       H   -12.12412   17.53912   17.32225
       O   -12.64153   16.80348   17.18982
      H1   -13.52879   17.07487   17.15395
       H   -15.26550   18.45039   17.70437
       O   -15.12516   18.49391   16.74991
      H1   -14.65730   19.36860   16.58136
       H   -12.59937   16.02600   15.30580
       O   -12.87174   15.87788   14.33403
      H1   -12.45003   15.05114   14.08686
       H   -15.63979   19.71457   19.72253
       O   -14.97811   19.04291   19.44219
      H1   -14.34060   19.54331   18.90994

