15
frame 1 | Written by MDAnalysis XYZWriter (release 2.4.3)
       H   -12.36427   -5.21067  -10.81334
       O   -13.01663   -4.69892  -10.23300
      H1   -12.50477   -4.08422   -9.63036
       H   -14.35191   -6.14858   -9.30458
       O   -14.31921   -6.59788   -8.47700
      H1   -13.78460   -6.01184   -7.91595
       H   -11.33121   -2.64347   -8.79854
       O   -12.26667   -2.78662   -8.46358
      H1   -12.90457   -2.23893   -8.97861
       H   -12.55089   -4.17410   -6.92179
       O   -12.58683   -5.07905   -6.60099
      H1   -11.70289   -5.43813   -6.90485
       H   -14.87316   -3.75466  -13.14291
       O   -14.42062   -3.35519  -12.38214
      H1   -13.80533   -4.02809  -12.05360

