15
frame 0 | Written by MDAnalysis XYZWriter (release 2.4.3)
       H     6.99239   13.25622    4.34321
       O     7.14410   12.31128    4.63994
      H1     6.27904   11.91776    4.74828
       H     3.41671    8.89632    3.17042
       O     2.55383    9.08649    3.59885
      H1     2.19014    9.76642    3.02376
       H     4.97636   11.27663    3.50900
       O     4.79331   11.01187    4.45170
      H1     3.89397   10.71089    4.33350
       H     4.98148   11.70570    6.27467
       O     4.92845   12.15456    7.14924
      H1     5.73905   11.89197    7.60933
       H     4.30111   11.64045    0.90781
       O     4.03483   12.08421    1.75767
      H1     3.11115   11.81332    1.96371

