15
frame 1 | Written by MDAnalysis XYZWriter (release 2.4.3)
       H    16.06610  -14.28171    0.42714
       O    15.80728  -13.55012   -0.19727
      H1    16.02175  -13.75734   -1.12987
       H    15.92678  -14.75683   -2.98190
       O    16.11319  -13.82598   -2.77117
      H1    15.30899  -13.31084   -2.95910
       H    18.96134  -14.70639   -1.21229
       O    19.38448  -14.16514   -1.89070
      H1    18.62823  -13.70349   -2.27600
       H    18.90112  -13.06745   -4.84556
       O    18.23722  -12.38999   -4.54630
      H1    17.49189  -12.97305   -4.24102
       H    16.28661  -16.49918   -3.87926
       O    16.26449  -16.52873   -2.91920
      H1    15.42877  -16.98460   -2.64331

