15
frame 1 | Written by MDAnalysis XYZWriter (release 2.4.3)
       H   -11.84392   -3.53743   -1.18657
       O   -11.44966   -2.63162   -1.16173
      H1   -11.56276   -2.44116   -0.22428
       H   -14.46597   -3.66600    3.44325
       O   -14.68345   -3.06251    2.71614
      H1   -14.37561   -3.50548    1.92304
       H   -16.44894   -2.58475   -2.00235
       O   -16.30123   -2.25165   -1.10663
      H1   -17.19403   -2.06903   -0.72733
       H   -12.96208   -6.14279   -1.85084
       O   -13.23099   -5.22396   -1.98097
      H1   -12.80684   -4.91544   -2.77022
       H   -13.98878   -4.32846   -0.53890
       O   -14.27267   -3.73222    0.17320
      H1   -15.11798   -3.27576   -0.08021

