15
frame 2 | Written by MDAnalysis XYZWriter (release 2.4.3)
       H     2.06041  -19.31511   12.12241
       O     2.90373  -18.83747   11.88854
      H1     3.33325  -19.39051   11.18860
       H     2.75631  -15.05281   13.46258
       O     2.33811  -14.32013   13.97056
      H1     1.39460  -14.28096   13.64320
       H     2.58630  -15.53589   10.27210
       O     2.38844  -16.49356   10.16020
      H1     2.38036  -17.03859   10.94699
       H     5.56676  -17.64968   14.38786
       O     6.16976  -16.92176   14.43524
      H1     5.67039  -16.13870   14.27739
       H     4.47914  -15.93219   12.27095
       O     3.87302  -16.42771   12.87915
      H1     3.78893  -17.34693   12.54505

