15
frame 0 | Written by MDAnalysis XYZWriter (release 2.4.3)
       H     0.65792   -7.42675    1.46991
       O     0.08791   -7.65224    0.69343
      H1     0.50160   -7.32846   -0.08649
       H    -0.80388   -6.95582    5.57318
       O    -0.45933   -7.88447    5.63867
      H1    -1.07527   -8.27264    6.30322
       H     1.46316   -6.42828    3.11763
       O     1.27667   -7.39852    3.02718
      H1     0.98910   -7.78906    3.83765
       H     3.36043   -7.96898    5.67528
       O     3.69782   -8.54357    4.93584
      H1     2.95490   -9.11586    4.67113
       H    -0.53735  -11.03014    5.01025
       O    -0.33497  -10.32489    4.37320
      H1    -0.52294   -9.45886    4.69528

