15
frame 0 | Written by MDAnalysis XYZWriter (release 2.4.3)
       H    -1.62937    9.47096    7.64547
       O    -2.42913    9.63272    8.05910
      H1    -2.79720    8.79658    8.32860
       H    -3.80883   11.05405   10.52435
       O    -2.96313   10.62395   10.76770
      H1    -2.55291   10.31993    9.95196
       H    -2.95617    7.18064    9.66448
       O    -2.81350    7.00874    8.73671
      H1    -1.85172    6.88608    8.65548
       H    -4.02899    5.36218    5.74273
       O    -3.83721    6.27892    6.08841
      H1    -3.39099    6.09247    6.93333
       H    -2.66234   11.21579    7.13885
       O    -2.70392   12.02234    6.63358
      H1    -3.64301   12.23277    6.61718

