15
frame 1 | Written by MDAnalysis XYZWriter (release 2.4.3)
       H   -15.26066    1.03967    9.13109
       O   -14.34810    1.31803    8.85096
      H1   -13.85279    0.50360    8.68421
       H   -11.58105   -1.32769    8.41371
       O   -12.08742   -0.49445    8.22650
      H1   -11.43307    0.19234    8.19369
       H   -12.14398    3.76224    9.94213
       O   -12.91128    3.55560   10.53634
      H1   -13.46364    2.95627    9.98796
       H   -13.50943    2.35796    7.32090
       O   -12.89403    2.84988    6.74171
      H1   -13.38127    3.20778    5.96698
       H   -14.24573   -1.54989    5.92391
       O   -14.23345   -2.00632    6.81084
      H1   -13.38267   -1.90768    7.24840

