15
frame 1 | Written by MDAnalysis XYZWriter (release 2.4.3)
       H    14.07751   -9.26411    6.18629
       O    14.81874   -9.84773    6.34525
      H1    14.62822  -10.17542    7.23475
       H    16.95760   -6.78857    4.45216
       O    15.97954   -7.05835    4.38624
      H1    15.80212   -7.27477    5.29029
       H    13.92471   -5.52381    9.01118
       O    14.72750   -6.04704    9.16105
      H1    14.94267   -6.44171    8.29311
       H    12.75419   -8.14795    7.50184
       O    12.60832   -8.09703    6.51239
      H1    11.71629   -7.77332    6.45847
       H    15.60126   -8.50707    6.81702
       O    15.91657   -7.57531    7.04805
      H1    16.86894   -7.82904    7.15358

