15
frame 1 | Written by MDAnalysis XYZWriter (release 2.4.3)
       H    -2.81093    3.28110   -3.57577
       O    -3.37920    2.71505   -3.00613
      H1    -3.62073    3.18489   -2.18911
       H    -1.33645    0.85604   -4.44639
       O    -0.89883    1.58285   -4.92893
      H1     0.02619    1.40843   -4.88272
       H     1.17294    2.10399   -2.39343
       O     1.05338    1.15919   -2.18543
      H1     1.12724    0.66701   -3.06060
       H    -1.70074    3.07139   -4.86429
       O    -2.05475    3.94885   -5.10640
      H1    -1.70383    4.51499   -4.42026
       H    -1.53568    1.38445   -6.77342
       O    -1.59848    1.12023   -7.70008
      H1    -1.94497    1.94900   -8.05715

