15
frame 1 | Written by MDAnalysis XYZWriter (release 2.4.3)
       H    12.14730   -0.03518   10.70765
       O    12.25698    0.84174   10.34485
      H1    11.50792    1.02705    9.75371
       H    11.32970   -2.79170   10.72435
       O    11.87129   -1.98897   10.62713
      H1    12.83454   -2.16447   10.65034
       H    11.96336    2.06690   11.66825
       O    11.65031    2.65758   12.35876
      H1    12.16382    3.47693   12.28875
       H    12.55869    2.74679    7.91270
       O    13.39606    2.28948    7.97045
      H1    13.20346    1.58096    8.61650
       H     9.90178    2.92438    9.55395
       O    10.28338    2.22354    9.00663
      H1     9.56619    1.53214    9.04814

