15
frame 2 | Written by MDAnalysis XYZWriter (release 2.4.3)
       H     5.29987  -13.51860   11.68208
       O     5.75331  -14.33794   11.92512
      H1     6.42199  -14.45923   11.21527
       H     5.96262  -17.36098    9.86250
       O     6.85550  -17.15300   10.12203
      H1     6.88289  -17.42277   11.06930
       H     7.70435  -12.77096   13.62475
       O     8.17820  -13.51297   13.25809
      H1     7.54043  -14.09992   12.76335
       H     6.89608  -14.38260    9.35013
       O     7.57596  -14.58320   10.09803
      H1     7.53929  -15.52888   10.17297
       H     4.47914  -15.93219   12.27095
       O     3.87302  -16.42771   12.87915
      H1     3.78893  -17.34693   12.54505

