15
frame 0 | Written by MDAnalysis XYZWriter (release 2.4.3)
       H    16.63169    8.89924   -6.54252
       O    15.92452    9.33040   -7.02015
      H1    15.61573   10.04942   -6.43879
       H    14.25591   10.99958  -10.69787
       O    14.28701   11.91301  -11.02368
      H1    13.65238   12.39969  -10.50580
       H    14.60277    9.50427   -8.49874
       O    14.44540    9.65948   -9.43928
      H1    13.73577    9.07544   -9.69460
       H    17.35806    8.30791   -9.89461
       O    16.74781    8.71802  -10.56647
      H1    15.97068    9.08630   -9.98030
       H    15.20456    7.50922   -7.19375
       O    14.90135    6.56784   -7.17384
      H1    15.62492    5.95509   -7.53090

