15
frame 2 | Written by MDAnalysis XYZWriter (release 2.4.3)
       H    12.88285    5.13391  -14.00050
       O    13.07422    4.62746  -13.13702
      H1    12.47213    4.94626  -12.39915
       H    16.82919    5.12039  -14.22861
       O    17.17550    4.31508  -14.63551
      H1    16.35400    3.73903  -14.69064
       H    14.47198    3.35589  -13.72801
       O    14.92534    2.97302  -14.48711
      H1    14.34890    3.18227  -15.23338
       H    12.14054    1.64844  -14.16070
       O    12.30068    1.91382  -13.26305
      H1    12.42152    2.89638  -13.30538
       H    17.33066    2.46989  -17.51713
       O    16.72087    2.31576  -16.78210
      H1    15.87039    2.62732  -17.00127

