15
frame 2 | Written by MDAnalysis XYZWriter (release 2.4.3)
       H     8.63426   -9.47018    6.93237
       O     8.09517   -9.40304    6.07495
      H1     8.60947  -10.04931    5.47574
       H    12.06059   -7.58053    7.02498
       O    12.52332   -8.03923    6.31837
      H1    11.82904   -7.87294    5.55190
       H     9.90266   -6.65456    8.47981
       O    10.76111   -7.12591    8.41847
      H1    11.00376   -7.22115    9.37544
       H    10.49081  -12.42851    9.07824
       O    11.12067  -12.32636    8.34643
      H1    10.89503  -12.96634    7.64903
       H    10.25259   -8.98627    8.30419
       O     9.69788   -9.80741    8.23712
      H1    10.34098  -10.54150    8.04461

