15
frame 2 | Written by MDAnalysis XYZWriter (release 2.4.3)
       H   -18.40044  -13.07615   17.38219
       O   -19.37832  -13.06820   17.50981
      H1   -19.79175  -12.36429   16.98943
       H   -18.82740   -9.11681   17.04092
       O   -19.36369   -8.51744   17.58066
      H1   -19.68209   -9.14942   18.24736
       H   -16.65665   -7.76624   15.17694
       O   -16.54680   -6.86890   15.59257
      H1   -16.69784   -6.86446   16.58129
       H   -16.75964   -9.77902   17.40708
       O   -16.40783   -9.40322   18.20082
      H1   -16.51945   -8.47196   18.05193
       H   -17.21333  -11.26055   15.99053
       O   -17.90982  -10.58443   15.95476
      H1   -17.62234  -10.03673   15.16047

