15
frame 2 | Written by MDAnalysis XYZWriter (release 2.4.3)
       H    -9.02315  -16.36757    8.32588
       O    -9.40950  -16.84327    7.53575
      H1    -9.26402  -17.81502    7.59489
       H   -11.17921  -14.48897    9.60284
       O   -10.92416  -15.10194   10.29861
      H1   -11.14291  -15.97534    9.98921
       H    -7.62711  -18.75160   10.82526
       O    -8.44320  -18.25316   10.53695
      H1    -7.99525  -17.56486   10.02322
       H    -9.23420  -14.91080    9.86566
       O    -8.33728  -15.19170    9.55608
      H1    -7.75705  -15.08581   10.27791
       H    -7.97131  -14.01321    8.08554
       O    -7.46056  -13.77588    7.27310
      H1    -6.55636  -13.79873    7.53326

