15
frame 2 | Written by MDAnalysis XYZWriter (release 2.4.3)
       H     4.94748  -16.21811  -15.52769
       O     5.21959  -15.68894  -14.74235
      H1     5.77921  -16.22447  -14.15130
       H     6.07851  -12.36165  -15.52642
       O     6.59878  -13.04941  -16.03195
      H1     6.37690  -13.87217  -15.53469
       H     3.99435  -13.29701  -18.95672
       O     4.46096  -14.06269  -18.47686
      H1     4.68522  -13.63432  -17.65668
       H     5.39123  -10.16634  -13.88737
       O     5.09933  -10.65463  -14.68023
      H1     4.34847  -11.19581  -14.53792
       H     8.50439  -11.32182  -18.21394
       O     8.12279  -12.19426  -18.46572
      H1     7.60616  -12.53815  -17.72154

