15
frame 2 | Written by MDAnalysis XYZWriter (release 2.4.3)
       H    14.54830  -17.11311   14.07776
       O    14.34718  -17.48030   14.95603
      H1    13.73493  -16.83913   15.34666
       H    17.47555  -18.17404   16.39670
       O    18.03564  -18.93655   16.24266
      H1    17.40728  -19.64237   16.01284
       H    16.09610  -14.28429   19.02357
       O    15.67757  -14.62387   18.20991
      H1    14.72814  -14.68076   18.40285
       H    16.89918  -13.90111   14.81221
       O    16.16435  -14.57192   14.86837
      H1    16.37076  -15.02002   15.71332
       H    15.46625  -17.23774   16.13876
       O    15.93538  -17.13693   17.00244
      H1    15.59650  -16.33219   17.36432

