15
frame 0 | Written by MDAnalysis XYZWriter (release 2.4.3)
       H     3.84118    6.42862   17.04926
       O     4.58478    7.03610   16.92766
      H1     4.14785    7.93129   16.81231
       H     1.39754    5.06475   14.31783
       O     2.05487    5.69707   14.68683
      H1     1.75546    5.85367   15.56812
       H     1.23946    6.20602   17.99805
       O     2.09783    5.88648   17.69102
      H1     1.88943    4.95538   17.96505
       H     4.32349    4.33512   12.01170
       O     4.04651    5.08281   12.55584
      H1     3.52189    4.74412   13.30870
       H     1.65666    7.18548   13.88268
       O     1.14294    7.92703   13.43867
      H1     0.50707    8.25776   14.09188

