15
frame 2 | Written by MDAnalysis XYZWriter (release 2.4.3)
       H     4.44284  -17.81885   -9.99811
       O     5.37503  -18.13362  -10.06762
      H1     5.18559  -19.06879   -9.85938
       H     6.57829  -14.53872   -8.82686
       O     6.99311  -15.28464   -8.34085
      H1     7.45683  -15.82443   -9.03841
       H     6.99927  -19.86799   -9.85837
       O     7.55844  -19.62152   -9.06558
      H1     6.96023  -19.12600   -8.47727
       H     4.12080  -14.93559   -9.50875
       O     4.22531  -15.48675   -8.68684
      H1     5.17249  -15.45546   -8.50002
       H     5.93759  -17.74263   -8.07306
       O     6.29680  -17.95700   -7.18053
      H1     6.77513  -17.18953   -6.89718

