15
frame 2 | Written by MDAnalysis XYZWriter (release 2.4.3)
       H     9.27838  -11.88856   10.90547
       O     9.85508  -12.63860   10.64183
      H1     9.28329  -13.39927   10.57055
       H     9.43274  -14.48361   14.05539
       O    10.06666  -14.89485   14.65358
      H1     9.55097  -15.41309   15.28983
       H     8.02038  -10.73865   12.40353
       O     8.06803  -10.49716   11.46162
      H1     8.42846   -9.61684   11.61955
       H    10.29872  -12.22875   12.66500
       O    10.93008  -11.66969   13.06463
      H1    11.65725  -11.61155   12.35028
       H     7.70435  -12.77096   13.62475
       O     8.17820  -13.51297   13.25809
      H1     7.54043  -14.09992   12.76335

