15
frame 2 | Written by MDAnalysis XYZWriter (release 2.4.3)
       H    15.57953   14.24869  -16.40012
       O    15.35083   14.10672  -15.47454
      H1    14.85608   13.26799  -15.38506
       H    16.96803   16.42045  -15.61011
       O    16.72865   17.07299  -16.35249
      H1    15.83065   17.34608  -16.28730
       H    16.82456   11.23342  -17.42080
       O    16.03818   11.75855  -17.71527
      H1    16.24091   12.71465  -17.74755
       H    15.19165   16.97393  -20.24487
       O    15.44508   16.94929  -19.33394
      H1    14.84406   17.49833  -18.86379
       H    15.94575   15.28043  -18.26639
       O    16.35139   14.44733  -17.94055
      H1    17.31182   14.51604  -18.08530

