15
frame 2 | Written by MDAnalysis XYZWriter (release 2.4.3)
       H   -15.70189  -12.92967    8.22494
       O   -16.10088  -13.83739    8.28714
      H1   -15.40163  -14.43721    8.53656
       H   -14.44718  -19.00554    7.00651
       O   -14.16281  -18.47107    7.82062
      H1   -14.66154  -18.83937    8.59754
       H   -15.40774  -16.88829    7.39730
       O   -15.66525  -16.21056    6.79594
      H1   -16.35044  -15.68878    7.21481
       H   -17.99204  -17.70898    5.09385
       O   -17.73638  -16.75022    5.08463
      H1   -16.91320  -16.64279    5.49330
       H   -13.99928  -13.83688    5.57445
       O   -13.65604  -14.65481    5.94810
      H1   -14.36980  -15.28567    6.18850

