15
frame 2 | Written by MDAnalysis XYZWriter (release 2.4.3)
       H   -15.85635  -17.26913   16.73917
       O   -15.44909  -17.50605   15.88062
      H1   -16.04091  -18.12513   15.43914
       H   -15.40877  -14.69742   19.69951
       O   -15.75837  -14.29759   18.89382
      H1   -14.98451  -13.77617   18.69826
       H   -15.39893  -12.34713   16.51323
       O   -16.30334  -12.53465   16.71849
      H1   -16.31333  -13.43789   16.41136
       H   -16.87597  -16.38289   18.59581
       O   -16.97396  -17.18598   18.07180
      H1   -17.95632  -17.34529   17.93178
       H   -17.31260  -15.17451   15.03742
       O   -16.42206  -14.93200   15.18724
      H1   -15.95212  -15.72490   15.34114

