15
frame 2 | Written by MDAnalysis XYZWriter (release 2.4.3)
       H    -5.73883  -17.57945   11.24295
       O    -5.75934  -16.88867   10.61775
      H1    -5.78536  -17.23177    9.73678
       H    -5.96342  -18.08332   13.29599
       O    -5.44412  -18.77041   12.89845
      H1    -4.52792  -18.64892   13.06609
       H    -4.46680  -15.60968   15.02750
       O    -4.35154  -16.28132   14.38311
      H1    -4.49047  -15.90762   13.51311
       H    -1.21822  -16.49078   14.79303
       O    -1.85164  -17.20667   14.59471
      H1    -2.73628  -16.82030   14.45512
       H    -2.04098  -18.71494   13.16361
       O    -2.62563  -19.14578   12.53080
      H1    -2.61845  -20.08449   12.73258

