15
frame 3 | Written by MDAnalysis XYZWriter (release 2.4.3)
       H    15.61054    5.38758   11.78819
       O    15.12509    6.24186   11.81351
      H1    14.32267    6.08144   12.28968
       H    13.51860    7.70503   14.69655
       O    12.86183    8.14093   14.06031
      H1    12.74406    9.02112   14.49169
       H    11.44836    6.05793   11.84434
       O    10.94394    6.66992   11.25504
      H1     9.99103    6.46578   11.36461
       H    12.56649    6.55717   13.55335
       O    12.67862    5.65048   13.21920
      H1    13.29719    5.23378   13.82213
       H    10.33473    3.54780   11.61351
       O    10.90046    3.27135   12.30371
      H1    11.59318    3.89507   12.43646

