15
frame 2 | Written by MDAnalysis XYZWriter (release 2.4.3)
       H    19.00845  -11.16821    8.55454
       O    18.20042  -11.00434    9.10010
      H1    18.23015  -11.72770    9.76651
       H    18.84570   -8.39405    6.66039
       O    18.67435   -7.82454    7.39830
      H1    18.90775   -6.97246    7.11275
       H    18.55659   -7.25202   11.08570
       O    18.45760   -6.49999   11.69222
      H1    17.91505   -6.74723   12.45942
       H    15.45176   -7.93120    7.95290
       O    15.88719   -7.24251    7.41227
      H1    16.79771   -7.60588    7.51914
       H    18.97996   -8.25486    9.18158
       O    19.00546   -8.39458   10.10398
      H1    18.45834   -9.12709   10.27413

