15
frame 2 | Written by MDAnalysis XYZWriter (release 2.4.3)
       H     3.30856    6.55324   16.55851
       O     4.14124    7.11558   16.58368
      H1     3.89255    8.03671   16.35798
       H     5.31425    3.43091   14.88012
       O     5.50709    2.46322   14.90302
      H1     5.12618    2.12131   15.73133
       H     5.05554    6.20078   15.43375
       O     5.63272    5.76528   14.77812
      H1     5.19692    5.95693   13.96160
       H     8.86239    4.32112   14.45741
       O     8.58177    4.89113   15.23464
      H1     7.70376    5.22214   14.90649
       H     6.55768    7.81942   15.15631
       O     6.97560    8.40233   14.49011
      H1     6.22527    8.98630   14.23275

