15
frame 3 | Written by MDAnalysis XYZWriter (release 2.4.3)
       H    18.53192  -18.35364  -19.22247
       O    19.10435  -18.99633  -19.60882
      H1    19.97341  -18.87974  -19.19202
       H    17.16582  -19.91296  -16.19049
       O    17.39514  -18.94356  -16.22277
      H1    18.26552  -18.92125  -15.80017
       H    18.21845  -16.35537  -17.76758
       O    17.68813  -17.08414  -18.12832
      H1    17.79043  -17.74357  -17.39334
       H    19.37059  -14.60474  -16.53965
       O    19.33750  -15.14645  -17.30862
      H1    19.11789  -14.74783  -18.20280
       H    15.26841  -15.52423  -16.74479
       O    15.32127  -15.88787  -17.63064
      H1    16.16896  -16.34557  -17.69600

