15
frame 4 | Written by MDAnalysis XYZWriter (release 2.4.3)
       H    -1.66447   16.07566    9.05574
       O    -1.49723   16.73096    8.41442
      H1    -1.17600   16.13158    7.69483
       H     0.28155   18.52378   10.35225
       O     0.59332   17.74878    9.86523
      H1    -0.21804   17.27174    9.66275
       H     1.09947   16.50616   10.98861
       O     1.49025   15.88784   11.65857
      H1     0.87891   15.16655   11.80986
       H    -2.25870   16.83493   11.46054
       O    -1.83040   17.69495   11.60045
      H1    -2.17407   18.29529   10.87874
       H     0.31565   18.35616    8.14861
       O     0.20478   18.66758    7.24653
      H1    -0.20925   17.95613    6.76808

