15
frame 0 | Written by MDAnalysis XYZWriter (release 2.4.3)
       H    14.66790    2.72132    9.15535
       O    15.54458    3.11154    8.98616
      H1    15.39269    4.02595    9.37666
       H    14.96996    0.17551   10.97903
       O    14.45030   -0.52738   11.45696
      H1    14.30866   -1.25243   10.83734
       H    16.00738    2.29098   12.26053
       O    15.70659    2.91233   13.00054
      H1    15.25219    2.41022   13.64892
       H    16.31303    1.97670   10.17425
       O    16.29622    1.38536   10.90608
      H1    17.18484    0.95013   10.83185
       H    13.50251    4.67020   12.17622
       O    13.71635    3.82677   11.72862
      H1    14.50636    3.42502   12.11690

