15
frame 0 | Written by MDAnalysis XYZWriter (release 2.4.3)
       H    12.05520   17.46901  -15.40269
       O    12.14002   16.56281  -15.80594
      H1    11.28969   16.14033  -15.52860
       H     8.81743   16.59319  -18.75515
       O     9.04113   16.89364  -17.85870
      H1     9.90691   17.33096  -18.03321
       H    14.13304   18.11029  -19.47849
       O    15.03278   17.65910  -19.32504
      H1    15.01581   17.57864  -18.33034
       H    11.88979   17.37983  -17.28371
       O    11.63863   17.88297  -18.11076
      H1    11.53000   18.79718  -17.75352
       H    15.15872   18.21401  -15.71723
       O    14.72323   17.86240  -16.49299
      H1    14.06565   17.28312  -16.10014

