15
frame 3 | Written by MDAnalysis XYZWriter (release 2.4.3)
       H   -17.11788   10.59780   -5.77139
       O   -17.27985   10.39019   -4.85066
      H1   -17.60776    9.46704   -4.76168
       H   -14.45383   12.10878   -5.44468
       O   -14.64447   12.83017   -6.08233
      H1   -13.80306   13.13646   -6.45024
       H   -14.27570   11.43363   -3.49530
       O   -14.51025   10.77725   -4.25030
      H1   -15.51313   10.79381   -4.21063
       H   -16.34722   10.60101   -7.99752
       O   -16.60263   11.23417   -7.30835
      H1   -15.80251   11.55647   -6.96119
       H   -16.71766   15.03652   -8.60943
       O   -17.31380   14.25732   -8.47323
      H1   -16.86258   13.68999   -7.85293

