15
frame 3 | Written by MDAnalysis XYZWriter (release 2.4.3)
       H     6.01782   13.12102   15.18702
       O     6.96953   13.29900   15.33168
      H1     7.27221   12.55534   15.88726
       H    10.14093   13.71041   16.44625
       O     9.87240   13.49498   17.38392
      H1    10.14334   14.24952   17.95037
       H     8.98445   12.10003   17.08496
       O     8.31596   11.45444   16.77708
      H1     8.67991   10.93549   16.05675
       H     6.52046   14.46063   16.53168
       O     6.23303   15.02663   17.23873
      H1     6.53276   14.53467   18.03407
       H     7.58626    8.81955   18.53560
       O     7.40301    9.71413   18.73923
      H1     7.77187   10.23330   17.99219

