15
frame 3 | Written by MDAnalysis XYZWriter (release 2.4.3)
       H     6.39235  -13.92417   -4.03627
       O     5.51533  -13.53381   -4.30337
      H1     4.88672  -14.24660   -4.20959
       H     0.70212  -14.18187   -4.02863
       O     1.38747  -13.98889   -3.37878
      H1     0.92963  -13.91966   -2.54696
       H     4.01972  -17.16471   -1.10682
       O     4.37095  -16.47691   -1.62449
      H1     5.08269  -16.77182   -2.11995
       H     3.62632  -15.99307   -3.26715
       O     3.34780  -15.55373   -4.03303
      H1     2.53413  -15.12599   -3.80712
       H     2.87219  -15.48405   -7.28765
       O     2.58684  -16.07105   -6.59426
      H1     3.04386  -15.82935   -5.72958

