15
frame 3 | Written by MDAnalysis XYZWriter (release 2.4.3)
       H    13.69275  -18.76373   -1.36957
       O    13.52682  -17.86690   -1.02301
      H1    13.39192  -18.09480   -0.08567
       H    12.44014  -19.63532    1.49228
       O    13.03987  -18.85437    1.41309
      H1    13.96172  -19.08489    1.72796
       H    16.68965  -16.06189    0.95078
       O    15.76663  -15.91170    1.27318
      H1    15.81419  -15.85102    2.25194
       H    15.78659  -17.96785    1.40751
       O    15.73923  -18.87181    1.81141
      H1    16.11228  -19.49660    1.10588
       H    13.23539  -17.10642    2.72947
       O    13.22993  -16.57010    3.47575
      H1    14.14143  -16.38296    3.77695

