15
frame 3 | Written by MDAnalysis XYZWriter (release 2.4.3)
       H   -13.03634   16.60781    8.03960
       O   -12.60919   17.35680    8.44957
      H1   -12.35513   17.02727    9.31536
       H   -10.24133   15.71078    8.26286
       O   -10.35138   15.63401    7.31006
      H1    -9.48043   15.63274    6.93379
       H   -11.55601   18.04192    6.85704
       O   -11.21804   18.69097    6.26579
      H1   -10.58159   19.17737    6.78558
       H   -15.06635   19.47937    9.34832
       O   -14.17794   19.38080    9.70026
      H1   -13.86068   18.65569    9.13675
       H   -10.34615   18.82323    9.25822
       O   -10.18341   19.78796    9.15738
      H1    -9.29729   19.95782    9.51787

