15
frame 3 | Written by MDAnalysis XYZWriter (release 2.4.3)
       H    -8.23887   -4.73764    6.53130
       O    -8.20776   -3.90433    6.00513
      H1    -7.84779   -4.15154    5.11398
       H   -10.80873   -4.81041    3.26149
       O   -10.76468   -4.29717    4.07041
      H1   -10.19237   -3.58112    3.78157
       H    -9.80864   -3.17024    6.43543
       O   -10.58411   -2.70605    6.79277
      H1   -11.24038   -2.51005    6.13185
       H    -9.18708    0.41204    7.81431
       O    -8.68193   -0.38054    7.52741
      H1    -9.28418   -1.09382    7.36274
       H   -11.35556   -2.20964    9.95100
       O   -11.80551   -2.70331    9.23166
      H1   -11.21211   -2.97962    8.49576

