15
frame 3 | Written by MDAnalysis XYZWriter (release 2.4.3)
       H     8.94549    4.36417   -8.69839
       O     9.27724    5.16027   -8.34571
      H1     9.20262    4.92673   -7.44346
       H     9.74971    1.27871   -7.24942
       O     8.84027    1.35956   -7.00003
      H1     8.44217    1.98666   -7.62668
       H     6.80500    1.83895   -9.17525
       O     7.41920    2.56438   -9.02265
      H1     6.92932    3.39672   -9.09127
       H     8.79194   -0.41527   -7.62908
       O     8.99809   -1.03601   -8.33781
      H1     9.14962   -1.89893   -7.94811
       H     8.02663    1.93943   -5.31891
       O     7.86434    2.85607   -4.89356
      H1     8.74960    3.28787   -4.97894

