15
frame 3 | Written by MDAnalysis XYZWriter (release 2.4.3)
       H    15.61054    5.38758   11.78819
       O    15.12509    6.24186   11.81351
      H1    14.32267    6.08144   12.28968
       H    18.09671    4.76972   10.61933
       O    17.50981    4.85837   11.36814
      H1    17.81898    4.08383   11.87335
       H    18.65251    8.55415   13.98038
       O    19.22303    9.07583   13.40952
      H1    20.13888    8.75394   13.58071
       H    18.46646    6.35087   11.79543
       O    19.00211    7.11057   11.56968
      H1    18.94832    7.82245   12.16773
       H    16.37827    8.60184   14.33262
       O    16.89871    7.81758   14.07122
      H1    16.56424    7.53174   13.24214

