15
frame 3 | Written by MDAnalysis XYZWriter (release 2.4.3)
       H   -14.81499    5.26934   14.16832
       O   -14.55889    5.78629   13.39503
      H1   -13.55975    5.69356   13.39769
       H   -17.54223    6.91797   13.70139
       O   -17.44509    7.88109   13.82337
      H1   -16.65316    8.12794   13.34987
       H   -13.35272   11.05660   13.75302
       O   -12.99934   10.31439   13.21763
      H1   -13.85016    9.86445   13.13506
       H   -18.05475    8.39622   15.97481
       O   -18.59789    8.75730   16.69672
      H1   -18.51383    9.71115   16.74347
       H   -14.79521    8.50270   11.79229
       O   -14.96394    8.54179   12.75462
      H1   -14.72600    7.66938   13.07042

