15
frame 3 | Written by MDAnalysis XYZWriter (release 2.4.3)
       H    -5.54233   -8.00578   -2.31978
       O    -5.04007   -8.09945   -1.48293
      H1    -4.90725   -7.22011   -1.13018
       H    -8.98718   -5.75184   -0.07602
       O    -8.79777   -4.94849    0.39621
      H1    -7.86603   -4.94802    0.54288
       H    -6.46963   -4.28727    3.12478
       O    -6.46337   -3.92006    4.03440
      H1    -6.18210   -2.99929    3.99789
       H    -3.54821   -5.18650   -0.32358
       O    -4.45550   -5.55902   -0.52736
      H1    -4.51035   -5.38239   -1.47180
       H    -6.42176   -5.93369    1.90251
       O    -6.31898   -5.04671    1.46582
      H1    -5.71075   -5.17708    0.77377

