15
frame 3 | Written by MDAnalysis XYZWriter (release 2.4.3)
       H     3.88271   -9.76370   -7.36365
       O     4.30799   -8.90640   -7.49397
      H1     4.46049   -8.80533   -8.43814
       H     4.03260   -7.22493   -4.62310
       O     3.20492   -6.69323   -4.82096
      H1     2.59352   -7.28991   -5.30276
       H     2.70577   -8.87789   -6.65149
       O     1.90253   -8.75863   -6.14297
      H1     1.95977   -9.40158   -5.46508
       H     6.96435   -7.93163   -6.93962
       O     6.27582   -7.19643   -6.95411
      H1     5.35340   -7.52249   -6.83462
       H     0.64119   -7.50963   -6.89732
       O     0.02169   -6.86240   -7.04440
      H1    -0.65806   -7.19349   -7.62201

