15
frame 3 | Written by MDAnalysis XYZWriter (release 2.4.3)
       H    -5.69474   19.80558   16.69765
       O    -5.93999   19.78629   17.62631
      H1    -5.16722   19.43686   18.04346
       H    -1.88529   16.13849   18.59705
       O    -2.85082   16.00406   18.58742
      H1    -3.08610   15.19361   19.04679
       H    -3.70180   18.90101   19.40367
       O    -4.20978   18.26949   18.89275
      H1    -3.74452   17.44300   18.87944
       H    -4.02672   16.59363   15.32747
       O    -3.83729   15.74273   15.78701
      H1    -3.60337   15.96036   16.70019
       H    -7.72358   17.83391   16.70459
       O    -7.80605   17.96371   17.73786
      H1    -7.01161   18.56343   17.82135

