15
frame 4 | Written by MDAnalysis XYZWriter (release 2.4.3)
       H    -0.16497  -13.64651    4.72881
       O     0.34760  -13.72475    5.53680
      H1     1.26720  -13.64395    5.14563
       H     5.11532  -11.79012    8.69319
       O     4.23588  -12.18834    8.58390
      H1     4.51704  -12.88586    7.99455
       H     5.53120  -10.71889    5.99212
       O     5.28481  -11.28759    5.23674
      H1     6.05689  -11.37276    4.65888
       H     3.06292  -10.28832    3.77819
       O     3.21980   -9.81729    4.60798
      H1     4.09351  -10.21244    4.91261
       H     3.82174  -13.13994    5.21720
       O     3.01086  -13.63838    5.11797
      H1     3.05870  -14.26184    4.41440

