15
frame 5 | Written by MDAnalysis XYZWriter (release 2.4.3)
       H    18.32940   -0.55165  -14.67709
       O    17.77482    0.21649  -14.51211
      H1    17.75904    0.72266  -15.36681
       H    19.07775    4.10526  -11.10540
       O    18.36730    4.08400  -10.46452
      H1    17.76163    3.50779  -10.93968
       H    16.72594    3.52519  -12.91321
       O    16.30811    2.85174  -12.31992
      H1    15.75290    3.49663  -11.83406
       H    19.01367    0.41747  -11.30503
       O    18.98933   -0.29275  -10.65599
      H1    18.04413   -0.30468  -10.37985
       H    18.62188    1.21652  -13.43079
       O    19.25916    1.78357  -13.04526
      H1    20.14576    1.54946  -13.30800

