15
frame 0 | Written by MDAnalysis XYZWriter (release 2.4.3)
       H   -16.48116    1.08625    8.11515
       O   -16.30104    0.36890    8.72488
      H1   -16.25678   -0.47105    8.24780
       H   -16.21966   -2.09950    6.85072
       O   -16.06027   -2.52336    7.74778
      H1   -15.05280   -2.55327    7.85253
       H   -16.47007   -0.48313    5.06612
       O   -16.71599   -1.40669    5.13026
      H1   -16.01987   -1.83669    4.62829
       H   -18.30443   -4.47312    8.77344
       O   -17.55460   -4.73460    8.23045
      H1   -17.05484   -3.90267    8.20285
       H   -13.50823   -2.05364    6.60178
       O   -13.55443   -2.82599    7.21856
      H1   -13.20209   -2.53164    8.06529

