15
frame 4 | Written by MDAnalysis XYZWriter (release 2.4.3)
       H    15.24347   -7.17508   13.46252
       O    15.92438   -6.51244   13.24417
      H1    15.50495   -5.70096   13.50241
       H    17.95551   -9.96884   14.30421
       O    17.95223  -10.77744   13.74987
      H1    18.08585  -10.36565   12.89811
       H    17.60894   -6.50640   15.75290
       O    17.67682   -5.71587   16.33697
      H1    18.13623   -5.00494   15.80441
       H    18.53792   -6.84315   11.32284
       O    18.54090   -6.57809   12.25249
      H1    17.62075   -6.40202   12.48968
       H    18.59018   -7.60170   14.12475
       O    18.30291   -8.19703   14.85120
      H1    19.13557   -8.34915   15.28386

