15
frame 4 | Written by MDAnalysis XYZWriter (release 2.4.3)
       H    -8.58628  -14.86166   16.44710
       O    -8.07385  -15.53982   16.00097
      H1    -7.85912  -15.18344   15.12261
       H    -9.43020  -17.07897   18.35613
       O    -9.51153  -17.40516   17.42392
      H1    -9.04984  -16.70207   16.86007
       H   -11.83215  -16.03865   15.62168
       O   -11.87205  -16.45577   16.48985
      H1   -10.94043  -16.91726   16.58946
       H    -6.31477  -14.52103   18.26940
       O    -5.92290  -14.84707   17.45701
      H1    -6.67658  -15.26888   17.03968
       H    -6.56975  -18.72288   18.38319
       O    -6.75273  -18.27492   19.20944
      H1    -7.68854  -18.47757   19.43043

