15
frame 5 | Written by MDAnalysis XYZWriter (release 2.4.3)
       H    -9.02635    3.59866    6.51941
       O    -8.31353    3.51947    5.80253
      H1    -7.85921    2.75792    6.12314
       H    -6.98508   -1.38168    6.17614
       O    -6.68872   -2.29908    6.11231
      H1    -7.18217   -2.57862    5.33203
       H    -6.58661    0.78462    7.44341
       O    -6.67216    1.06998    6.51675
      H1    -5.74822    1.25507    6.23556
       H    -8.20103   -0.78128    8.56546
       O    -7.44737   -0.51058    9.08738
      H1    -7.73977   -0.38216   10.03777
       H    -5.73077    0.71321    9.46325
       O    -4.94716    1.27304    9.39915
      H1    -4.62346    1.34478   10.29774

