15
frame 4 | Written by MDAnalysis XYZWriter (release 2.4.3)
       H   -15.90215   -8.44201    5.81611
       O   -15.21219   -8.93633    6.27259
      H1   -15.25733   -8.54931    7.19343
       H   -17.46075   -4.00304    3.54497
       O   -18.12921   -3.41592    3.09078
      H1   -17.70549   -3.23954    2.21906
       H   -16.06853   -5.81172    5.43722
       O   -16.97671   -5.96569    5.07957
      H1   -16.99136   -6.04763    4.14100
       H   -14.25392   -6.24472    6.73052
       O   -14.78116   -5.44102    6.46995
      H1   -14.66565   -4.70685    7.05623
       H   -18.73493   -5.98576    5.59912
       O   -19.59478   -5.81628    5.96141
      H1   -20.20798   -6.02236    5.24828

