15
frame 4 | Written by MDAnalysis XYZWriter (release 2.4.3)
       H     5.29422   15.85367  -16.04853
       O     5.66096   15.08899  -16.53891
      H1     5.02014   14.94872  -17.27378
       H     3.40805   13.55952  -18.61393
       O     4.10633   14.22857  -18.53658
      H1     3.89019   14.88231  -19.20982
       H     5.78754   13.59082  -18.77690
       O     6.34627   12.99343  -19.26371
      H1     7.22105   13.00307  -18.84239
       H     4.57812   11.12106  -18.55914
       O     4.48305   10.25635  -18.97185
      H1     5.30751   10.24715  -19.54807
       H     0.98638   12.95314  -17.99093
       O     1.82529   12.51746  -18.15523
      H1     1.59685   11.67029  -18.50688

