15
frame 0 | Written by MDAnalysis XYZWriter (release 2.4.3)
       H    17.36499   -1.50474   11.88717
       O    17.28384   -2.02809   12.68453
      H1    16.36536   -2.01196   12.91221
       H    16.77435   -2.90800   15.91399
       O    16.27104   -2.19564   15.55794
      H1    15.34859   -2.40826   15.77638
       H    15.54599    0.40677   17.43629
       O    16.20891    0.47986   16.71355
      H1    16.20479   -0.38238   16.25201
       H    13.21421   -3.18869   14.90621
       O    13.68132   -2.72789   15.61924
      H1    12.96886   -2.36484   16.11839
       H    17.75223   -5.41983   15.96573
       O    17.63447   -4.55251   16.42026
      H1    18.50854   -4.14220   16.31645

