15
frame 4 | Written by MDAnalysis XYZWriter (release 2.4.3)
       H    -4.56426   16.20732   -5.27323
       O    -4.88892   17.13597   -5.33214
      H1    -4.94000   17.41166   -4.36759
       H    -5.16707   11.40951   -3.74521
       O    -5.71707   11.95328   -3.20434
      H1    -6.30683   12.44038   -3.78866
       H    -5.28744   13.23143   -1.33822
       O    -5.55858   14.04041   -0.94012
      H1    -5.00714   14.19971   -0.17181
       H    -2.79397   14.93739   -6.08520
       O    -2.80800   15.05718   -7.03852
      H1    -1.99977   15.53094   -7.29119
       H    -4.26756   13.99777   -3.89368
       O    -3.64340   14.56768   -4.29717
      H1    -3.26171   15.05364   -3.54114

