15
frame 5 | Written by MDAnalysis XYZWriter (release 2.4.3)
       H     9.27263  -14.21706    6.67868
       O     9.06176  -14.61372    5.83784
      H1     8.48262  -13.97693    5.36656
       H     8.63479  -12.29779    3.85865
       O     8.02995  -13.04789    4.00822
      H1     7.88120  -13.35733    3.11552
       H     9.63452  -10.17629    2.65412
       O     9.95463  -10.93125    3.09971
      H1    10.81160  -10.71923    3.47593
       H    10.19748  -12.14026    1.86648
       O    10.15236  -12.95479    1.31518
      H1    10.89565  -12.94955    0.64450
       H     9.25053  -17.04479    4.31229
       O     9.30851  -16.55408    3.51179
      H1     9.38941  -15.67367    3.87232

