15
frame 4 | Written by MDAnalysis XYZWriter (release 2.4.3)
       H   -15.80341   -7.96564  -16.98786
       O   -16.72018   -7.68702  -17.10948
      H1   -16.98041   -8.10513  -17.94158
       H   -15.06736  -10.15664  -17.00784
       O   -14.45282   -9.58940  -16.56468
      H1   -14.50678  -10.03844  -15.68462
       H   -14.67556   -5.22191  -15.88577
       O   -14.57687   -6.17743  -15.94003
      H1   -13.60044   -6.29798  -15.78491
       H   -13.93004   -6.52322  -17.87746
       O   -13.77260   -6.32149  -18.76070
      H1   -13.83050   -5.36080  -18.78606
       H   -18.57587   -8.73545  -15.00396
       O   -17.60501   -8.91501  -14.87712
      H1   -17.13920   -8.44558  -15.56859

