15
frame 4 | Written by MDAnalysis XYZWriter (release 2.4.3)
       H     0.80707    9.47967  -18.73841
       O     0.20144   10.16763  -19.02638
      H1     0.19724   10.24486  -19.99517
       H    -1.60363   13.45345  -18.48121
       O    -0.67921   13.64545  -18.21553
      H1    -0.84050   13.89019  -17.26455
       H    -3.45123   14.27399  -16.52297
       O    -2.87473   13.51369  -16.68010
      H1    -3.39173   12.82178  -17.04766
       H    -1.62388   10.28035  -18.95456
       O    -2.53429   10.31287  -19.27874
      H1    -2.76043    9.52444  -19.71564
       H    -3.40783    9.92476  -17.45933
       O    -3.75929    9.32676  -16.74832
      H1    -4.09517    9.89383  -16.03769

