15
frame 6 | Written by MDAnalysis XYZWriter (release 2.4.3)
       H   -12.08597    9.99721   -0.29081
       O   -11.26768    9.54960   -0.50037
      H1   -10.99074    9.09468    0.31387
       H   -12.31552    5.25856    3.08722
       O   -12.95737    5.65469    2.47425
      H1   -12.58238    5.26437    1.67657
       H    -8.36818    9.49748    3.84746
       O    -9.26813    9.16408    3.82559
      H1    -9.11399    8.21031    3.95405
       H    -9.76120    5.02134    3.59904
       O   -10.14476    4.39942    2.91978
      H1    -9.39271    3.78361    2.86487
       H   -10.42523    7.26324    2.10996
       O    -9.97251    7.57923    1.33763
      H1    -9.06055    7.27765    1.41497

