15
frame 5 | Written by MDAnalysis XYZWriter (release 2.4.3)
       H   -18.93403   11.09601    6.30202
       O   -19.34413   11.15127    7.19824
      H1   -19.15036   11.99227    7.61274
       H   -17.12951    9.63415    8.90974
       O   -17.62581    9.31418    8.15547
      H1   -17.92853   10.13924    7.75520
       H   -17.80705   11.45223    4.16146
       O   -18.40246   10.89313    4.67677
      H1   -18.77098   10.18026    4.15175
       H   -19.03289   13.81892    9.20306
       O   -18.84320   13.60996    8.25266
      H1   -19.18307   14.27926    7.68678
       H   -17.26655   13.27925    8.49698
       O   -16.39802   12.87757    8.61154
      H1   -15.97451   13.17714    7.74728

