15
frame 6 | Written by MDAnalysis XYZWriter (release 2.4.3)
       H   -15.39746   12.94204   18.54710
       O   -15.30293   12.17602   17.99018
      H1   -15.02134   11.45720   18.58035
       H   -16.92747   11.05547   14.67839
       O   -17.84197   11.02164   14.88067
      H1   -18.05299   11.35661   15.75193
       H   -18.38694    9.80584   18.28554
       O   -18.94274    8.99291   18.33712
      H1   -19.80503    9.30533   17.99304
       H   -16.98359   11.99769   18.13134
       O   -17.89542   11.73895   17.85182
      H1   -18.54149   12.34608   18.27089
       H   -14.87317   15.22699   19.17124
       O   -15.59654   14.58113   19.22447
      H1   -16.31048   15.02681   18.68879

