15
frame 5 | Written by MDAnalysis XYZWriter (release 2.4.3)
       H     2.41275   13.24422    5.31557
       O     1.92331   13.54708    6.07078
      H1     2.07693   12.77240    6.66377
       H    -1.29835   14.81197    5.42256
       O    -0.68218   14.63690    6.17957
      H1     0.03812   14.11621    5.77153
       H    -1.11447   11.48353    4.64712
       O    -0.53776   11.67488    3.85263
      H1    -0.67577   10.89739    3.27438
       H     2.43527   11.89631    2.08978
       O     2.75673   11.20631    1.51043
      H1     2.58697   11.51368    0.60736
       H     0.96005   12.52225    3.62931
       O     1.70364   12.98598    3.23549
      H1     1.40565   13.87352    3.00334

