15
frame 5 | Written by MDAnalysis XYZWriter (release 2.4.3)
       H   -17.66476  -15.15787   -4.20408
       O   -18.60669  -15.01375   -4.17147
      H1   -19.09638  -15.85956   -4.01447
       H   -16.67535  -18.30254    0.76385
       O   -16.09049  -17.66907    1.12308
      H1   -15.77334  -17.81528    1.99265
       H   -18.93829  -15.51668   -0.59510
       O   -18.44578  -16.31554   -0.38482
      H1   -17.64122  -15.87362   -0.00796
       H   -18.19269  -17.80304   -1.53658
       O   -18.46082  -18.52166   -2.06908
      H1   -18.03260  -19.27391   -1.70054
       H   -12.85781  -17.22722    0.27535
       O   -13.50700  -17.87190   -0.06397
      H1   -14.28190  -17.52184    0.42897

