15
frame 5 | Written by MDAnalysis XYZWriter (release 2.4.3)
       H     6.87825  -14.10201   -2.08738
       O     6.70538  -14.28367   -3.03814
      H1     7.53516  -14.09615   -3.51492
       H     5.53675  -12.96913   -3.38004
       O     4.70045  -12.56136   -3.43656
      H1     4.00073  -13.19492   -3.56506
       H     6.58957  -14.34173   -6.49164
       O     6.97818  -15.22306   -6.35677
      H1     7.36827  -15.48581   -7.18192
       H     6.43977  -16.05020   -3.12801
       O     6.29148  -16.96694   -2.91245
      H1     6.00610  -17.40907   -3.69695
       H     8.15286  -14.41059   -5.39879
       O     8.92575  -14.02649   -4.89644
      H1     9.24215  -13.16434   -5.31062

