15
frame 5 | Written by MDAnalysis XYZWriter (release 2.4.3)
       H     2.54982   10.51215   -2.13929
       O     2.78846    9.81373   -2.72428
      H1     2.66767    8.96293   -2.31907
       H     1.37943   12.80584   -0.66075
       O     2.04459   12.15693   -0.94507
      H1     2.73345   12.75268   -1.21963
       H     2.43527   11.89631    2.08978
       O     2.75673   11.20631    1.51043
      H1     2.58697   11.51368    0.60736
       H     0.59940   12.17819   -2.48488
       O    -0.18399   12.15899   -3.02901
      H1    -0.76419   11.60539   -2.49289
       H     4.12517   14.18282   -0.21211
       O     4.08185   13.89624   -1.13887
      H1     4.59649   13.08416   -1.26227

