15
frame 6 | Written by MDAnalysis XYZWriter (release 2.4.3)
       H    -2.82481    1.98396    4.38058
       O    -3.80160    1.91901    4.29817
      H1    -3.83460    1.24076    3.57998
       H    -6.92564    0.49629    3.76984
       O    -7.11028    0.26079    2.86703
      H1    -7.16355    1.13976    2.40426
       H    -5.66592    0.35471    6.58908
       O    -5.77290    0.78490    5.70500
      H1    -4.99087    1.30755    5.48833
       H    -4.79772   -0.74773    5.20011
       O    -4.73232   -1.74720    5.06278
      H1    -5.71892   -1.93540    4.99080
       H    -4.70642    4.94661    4.28530
       O    -4.16738    4.77883    5.06575
      H1    -4.21862    3.83235    5.10111

