15
frame 0 | Written by MDAnalysis XYZWriter (release 2.4.3)
       H    17.91532  -14.82566  -19.28935
       O    18.81118  -14.52030  -19.37085
      H1    18.83435  -13.57558  -19.46946
       H    15.88821  -13.72188  -18.32455
       O    15.85916  -14.49954  -18.86855
      H1    15.52703  -15.17633  -18.27529
       H    18.34782  -17.16197  -17.59210
       O    17.98693  -18.02882  -17.89334
      H1    18.15021  -18.59978  -17.10419
       H    18.78216  -14.64720  -16.18037
       O    18.72743  -15.39509  -16.82918
      H1    18.70835  -14.90084  -17.70056
       H    18.88458  -11.81828  -18.20686
       O    18.94513  -11.74252  -19.15033
      H1    19.86401  -11.74957  -19.33427

