15
frame 6 | Written by MDAnalysis XYZWriter (release 2.4.3)
       H    -8.26508   -8.39872  -17.38598
       O    -8.61112   -8.86979  -18.16082
      H1    -8.05808   -8.63562  -18.89661
       H    -5.03943   -9.16575  -16.83356
       O    -4.45252   -9.17165  -16.05814
      H1    -4.91129   -8.93205  -15.25057
       H    -4.98725  -10.26993  -18.78491
       O    -5.58936   -9.59712  -18.44823
      H1    -5.92293   -9.12123  -19.21723
       H    -5.08381   -5.96018  -17.16404
       O    -5.45627   -6.34601  -17.92375
      H1    -4.98272   -7.15879  -18.02117
       H    -7.32945  -12.69084  -18.20016
       O    -8.12360  -12.13959  -18.12493
      H1    -7.78081  -11.22209  -18.27937

