15
frame 7 | Written by MDAnalysis XYZWriter (release 2.4.3)
       H   -10.68211   17.37912   -9.66943
       O   -10.42478   17.23407  -10.56397
      H1    -9.48891   17.26449  -10.51957
       H   -11.22829   19.70018   -9.24685
       O   -11.05680   19.37860   -8.35812
      H1   -11.98746   19.46453   -8.00913
       H    -9.01476   18.74682   -8.59907
       O    -8.18278   19.18020   -8.78704
      H1    -7.50761   18.50708   -8.87929
       H   -10.82063   20.14621  -12.53964
       O   -11.38109   19.76990  -11.85583
      H1   -11.12266   18.85997  -11.63664
       H   -11.56398   14.88946  -11.96433
       O   -11.42235   14.69706  -11.02969
      H1   -11.07353   15.50778  -10.67231

