15
frame 6 | Written by MDAnalysis XYZWriter (release 2.4.3)
       H     9.59828    7.97519   15.92846
       O     9.33694    8.01669   14.96960
      H1     8.91732    7.19141   14.63565
       H     7.01690    2.14564   13.86720
       O     7.34655    3.03148   13.98781
      H1     6.56129    3.58350   14.00059
       H     8.80462    5.32923   13.99383
       O     8.10191    5.97037   13.83298
      H1     7.22557    5.67179   13.99587
       H    10.53009    4.18847   12.83791
       O     9.99586    3.93063   13.64893
      H1     9.17787    3.48526   13.36515
       H     7.32465    5.47634   10.33082
       O     7.69307    4.86404   10.99897
      H1     7.97107    5.49267   11.65599

