15
frame 6 | Written by MDAnalysis XYZWriter (release 2.4.3)
       H   -12.31552    5.25856    3.08722
       O   -12.95737    5.65469    2.47425
      H1   -12.58238    5.26437    1.67657
       H   -11.04880    4.17313    1.45036
       O   -11.59669    4.11248    0.64135
      H1   -11.81835    3.15732    0.61483
       H   -12.88615    1.09135   -0.17075
       O   -12.51247    1.65438    0.55672
      H1   -11.85667    1.12667    0.99552
       H    -9.76120    5.02134    3.59904
       O   -10.14476    4.39942    2.91978
      H1    -9.39271    3.78361    2.86487
       H   -10.08327    3.21356   -0.26572
       O    -9.39884    2.64722   -0.49816
      H1    -9.03000    3.08570   -1.28220

