15
frame 6 | Written by MDAnalysis XYZWriter (release 2.4.3)
       H   -16.79229  -17.51740   15.76122
       O   -16.26970  -17.65552   14.90869
      H1   -16.71295  -18.46333   14.53097
       H   -16.34431  -13.99162   19.39283
       O   -16.69171  -13.59226   18.62501
      H1   -15.98342  -13.18947   18.09813
       H   -17.03848  -16.33938   18.10555
       O   -17.43990  -17.02635   17.56216
      H1   -18.30390  -16.65841   17.33138
       H   -18.42206  -13.26528   16.68522
       O   -19.15045  -12.76829   16.28405
      H1   -18.66192  -11.97736   16.13902
       H   -17.62950  -14.51687   14.17605
       O   -17.02699  -14.68272   14.93282
      H1   -16.76826  -15.58377   14.81191

