15
frame 6 | Written by MDAnalysis XYZWriter (release 2.4.3)
       H     3.74484   -9.96010   14.58015
       O     4.27171   -9.50220   13.89661
      H1     3.96825   -9.77576   13.02745
       H     2.95553  -10.04840   16.51486
       O     3.25178  -10.93203   16.22777
      H1     3.97517  -11.19463   16.75731
       H     4.67007   -6.39803   12.68732
       O     4.70135   -6.82003   13.57356
      H1     4.81999   -7.78356   13.61281
       H     3.95057  -10.43383   11.04003
       O     3.15662  -10.31285   11.52941
      H1     3.00871  -11.29203   11.72708
       H     7.26864   -9.64756   15.05214
       O     6.95827   -9.94396   14.15893
      H1     6.01756   -9.93783   14.20187

