15
frame 7 | Written by MDAnalysis XYZWriter (release 2.4.3)
       H   -10.67031  -16.08237  -16.90929
       O   -11.41124  -15.79417  -16.31837
      H1   -11.14512  -14.95099  -15.89752
       H   -14.72096  -16.49503  -19.02026
       O   -14.09694  -17.22684  -18.71901
      H1   -13.97635  -17.83114  -19.45675
       H   -17.30459  -17.74686  -19.00855
       O   -17.79543  -17.97589  -19.81407
      H1   -17.86897  -17.15393  -20.26628
       H   -15.07988  -14.59052  -18.71102
       O   -15.85308  -15.15128  -19.02625
      H1   -16.34319  -15.23530  -18.23679
       H   -16.67642  -17.11575  -16.66736
       O   -16.39414  -17.75143  -17.31920
      H1   -15.54815  -17.38775  -17.61434

