15
frame 0 | Written by MDAnalysis XYZWriter (release 2.4.3)
       H    18.91075    9.01968    7.07100
       O    19.06778    8.39292    7.78138
      H1    18.32755    7.74510    7.81741
       H    18.66804    9.76748    4.84570
       O    18.52806   10.21687    5.69937
      H1    19.27560   10.87052    5.70348
       H    16.98320   11.68105    8.29282
       O    16.90187   11.91310    7.36137
      H1    17.36845   11.26898    6.80645
       H    15.15690   11.46833    7.19057
       O    14.23531   11.12119    7.33114
      H1    13.90719   10.99867    6.43652
       H    15.69067   11.22303    5.17982
       O    15.05067   11.70389    4.65241
      H1    15.51958   12.10979    3.94414

