15
frame 6 | Written by MDAnalysis XYZWriter (release 2.4.3)
       H    13.61400   19.89183   11.48840
       O    13.70277   19.69550   12.42881
      H1    13.59766   18.75893   12.50020
       H    17.47710   18.87064   12.39216
       O    17.90357   18.01238   12.35907
      H1    18.85192   18.12681   12.44729
       H    17.00637   16.62989   16.39175
       O    16.68041   17.47426   15.97116
      H1    15.77876   17.31107   15.65595
       H    18.69204   19.75196   15.42901
       O    19.62730   19.99835   15.69421
      H1    20.05517   19.21239   15.98446
       H    17.06192   16.01249   12.77850
       O    17.07075   15.13887   12.43393
      H1    17.67981   14.63544   13.03547

