15
frame 6 | Written by MDAnalysis XYZWriter (release 2.4.3)
       H    -4.72986   -2.13867  -11.55000
       O    -4.01671   -2.53315  -11.02966
      H1    -3.23098   -2.05355  -11.33847
       H    -4.80785   -2.83405   -7.59028
       O    -4.19454   -2.09775   -7.41211
      H1    -4.27626   -1.42420   -8.15726
       H    -3.80639    0.29446  -11.68420
       O    -3.10888   -0.22770  -12.11908
      H1    -2.31280   -0.20243  -11.55717
       H    -4.54549    1.30020  -10.07104
       O    -4.41661    1.89213  -10.86765
      H1    -5.32053    2.06928  -11.11453
       H    -5.58887   -0.14389   -9.22293
       O    -4.63029   -0.28878   -9.38779
      H1    -4.54706   -0.89665  -10.06730

