15
frame 0 | Written by MDAnalysis XYZWriter (release 2.4.3)
       H   -13.30051   10.93403   -8.68813
       O   -12.54507   10.60579   -9.15453
      H1   -12.59337   11.08193   -9.97098
       H    -9.47281   10.32276  -11.83607
       O   -10.35913   10.13374  -11.52714
      H1   -10.36429   10.21840  -10.58520
       H   -14.33179    8.78607  -10.44208
       O   -15.12824    8.28523  -10.32167
      H1   -15.00677    7.48541  -10.87182
       H   -11.06916    9.71841   -8.48636
       O   -10.19946    9.34636   -8.43835
      H1   -10.28903    8.62031   -7.82245
       H   -14.38237    9.51296   -7.27282
       O   -14.81737   10.28559   -7.56349
      H1   -14.86248   10.79698   -6.70022

