15
frame 7 | Written by MDAnalysis XYZWriter (release 2.4.3)
       H    -3.91815   13.89110  -11.16148
       O    -4.26448   13.02800  -10.93636
      H1    -4.27188   12.48382  -11.70987
       H    -5.80844   14.24093  -10.43315
       O    -6.61292   14.74236  -10.20461
      H1    -6.26140   15.63107  -10.11590
       H    -6.21648   10.85004   -8.97546
       O    -5.50028   11.38942   -8.43667
      H1    -5.44037   12.21994   -8.92229
       H    -6.12908   12.32414   -7.18228
       O    -6.65604   12.95766   -6.72711
      H1    -7.54776   13.01003   -7.12443
       H    -3.12889   12.55597   -9.59200
       O    -2.52693   12.05159   -9.02431
      H1    -2.32948   12.75456   -8.35854

