15
frame 8 | Written by MDAnalysis XYZWriter (release 2.4.3)
       H    -1.97442    8.39375    8.34900
       O    -2.24027    9.20146    8.72891
      H1    -2.59764    9.01105    9.62073
       H    -5.16597    8.24819   11.40409
       O    -5.42609    7.48417   10.82702
      H1    -5.55867    7.83494    9.93293
       H    -5.02577    4.95032    8.60537
       O    -5.39072    5.62784    8.00235
      H1    -4.91716    5.47989    7.19020
       H    -4.79828    7.98696    8.32681
       O    -5.53986    8.52315    8.32417
      H1    -6.22246    7.92241    8.01806
       H    -6.28930   10.31217    7.59286
       O    -6.53411   11.21083    7.47669
      H1    -7.50752   11.13157    7.23727

