15
frame 7 | Written by MDAnalysis XYZWriter (release 2.4.3)
       H    -0.27056    5.48345    4.50976
       O     0.15427    5.92347    5.29249
      H1     1.06096    5.60684    5.32535
       H    -2.39967    6.73206    0.90637
       O    -2.58352    5.84789    1.21669
      H1    -1.96743    5.68522    1.96052
       H    -2.46405    1.81716    3.89930
       O    -3.43607    1.88180    3.96656
      H1    -3.74577    1.53176    3.11859
       H    -0.97622    3.83901    3.62211
       O    -1.43068    4.62934    3.49727
      H1    -2.33280    4.53812    3.93654
       H    -0.28693    2.41749    5.03111
       O    -0.71829    1.91553    4.33257
      H1     0.01976    1.71677    3.73091

