15
frame 7 | Written by MDAnalysis XYZWriter (release 2.4.3)
       H     3.80060    6.21673  -19.71483
       O     2.88224    6.19387  -19.38593
      H1     2.46055    7.04491  -19.29191
       H     3.23264   10.03857  -16.82368
       O     3.67653    9.83026  -17.68097
      H1     4.46458   10.38893  -17.83622
       H     2.31018    9.02208  -18.59636
       O     1.57793    8.45135  -18.85732
      H1     1.03210    8.28594  -18.04523
       H    -0.91407    7.62108  -16.58439
       O     0.07551    7.52627  -16.52095
      H1     0.34844    7.07991  -15.72367
       H     1.13340    9.49961  -15.76327
       O     2.02787    9.61483  -15.38342
      H1     1.84993    9.56779  -14.42278

