15
frame 7 | Written by MDAnalysis XYZWriter (release 2.4.3)
       H   -17.68756  -18.11557    8.99911
       O   -17.19257  -18.95632    8.81755
      H1   -17.58770  -19.64212    9.34707
       H   -17.96968  -15.92066    4.23165
       O   -18.12094  -14.96625    4.03177
      H1   -17.26073  -14.56137    3.70803
       H   -15.35907  -17.97973    3.22245
       O   -14.38706  -17.94438    3.13550
      H1   -14.05080  -18.76761    3.53402
       H   -15.10086  -16.53482    7.28672
       O   -15.87607  -16.07795    6.89386
      H1   -16.17148  -15.57899    7.70238
       H   -17.35797  -18.27269    5.04399
       O   -16.97394  -17.45071    4.70549
      H1   -16.37560  -17.06200    5.37856

