15
frame 7 | Written by MDAnalysis XYZWriter (release 2.4.3)
       H   -11.20612  -14.56424    7.58514
       O   -10.52263  -15.02339    8.05624
      H1   -11.02421  -15.64824    8.59383
       H    -9.45758  -16.86710    5.10950
       O    -9.71816  -16.02364    5.43451
      H1   -10.34826  -16.11884    6.19165
       H   -10.10421  -13.74251    9.26150
       O    -9.95741  -13.17277    9.98639
      H1   -10.30730  -13.65648   10.76560
       H    -8.44138  -14.78622    8.12861
       O    -7.54675  -14.74558    7.80540
      H1    -7.03543  -15.33926    8.35040
       H   -10.88414  -17.33595   10.11219
       O   -11.62208  -16.74321   10.13593
      H1   -12.27452  -17.17154    9.54082

