15
frame 7 | Written by MDAnalysis XYZWriter (release 2.4.3)
       H   -10.88179  -10.73597  -13.32572
       O   -11.50299  -10.95496  -14.03362
      H1   -11.11487  -11.72788  -14.40751
       H   -11.54065   -8.66198  -11.09716
       O   -10.87853   -8.08632  -11.41061
      H1   -11.17164   -7.79486  -12.28271
       H    -9.01351  -10.74615  -12.06408
       O    -9.94977  -10.60441  -11.89801
      H1    -9.98838   -9.63991  -11.76562
       H    -7.45595   -9.56616  -11.06964
       O    -7.83704   -9.00345  -10.34856
      H1    -7.03221   -8.78378   -9.88273
       H    -9.07861   -9.91901   -9.24845
       O    -9.69168  -10.31762   -8.61035
      H1   -10.01159  -11.16262   -8.94326

