15
frame 7 | Written by MDAnalysis XYZWriter (release 2.4.3)
       H   -16.56757   -1.89765    1.83001
       O   -17.37066   -1.41884    1.76652
      H1   -17.61187   -1.51927    0.79901
       H   -18.49335   -4.76909   -4.53839
       O   -17.65447   -4.34945   -4.58117
      H1   -17.93027   -3.47679   -4.88039
       H   -18.65365   -1.93732   -6.44388
       O   -18.44584   -1.76766   -5.47624
      H1   -17.47716   -1.54899   -5.40112
       H   -17.70502   -2.45586   -1.91667
       O   -18.18642   -1.68730   -1.72778
      H1   -18.26925   -1.16259   -2.49417
       H   -17.15894    2.81389   -4.23671
       O   -17.53749    2.29779   -3.50683
      H1   -16.95088    1.54172   -3.47907

