15
frame 7 | Written by MDAnalysis XYZWriter (release 2.4.3)
       H    13.83472  -12.19653  -19.92654
       O    14.34152  -11.66022  -19.24372
      H1    13.77328  -10.85561  -19.13677
       H    13.91294  -15.55506  -18.82089
       O    13.85858  -15.82585  -19.73020
      H1    14.78135  -15.88370  -20.03275
       H    17.47634  -17.09263  -18.31239
       O    16.82302  -17.67522  -18.66976
      H1    16.39091  -18.12028  -17.93923
       H    19.66512  -15.07091  -18.02319
       O    18.84067  -15.43337  -18.30611
      H1    18.10418  -14.80085  -18.27650
       H    14.13271  -14.75228  -16.49167
       O    13.36402  -15.25135  -16.85479
      H1    13.50827  -16.17555  -16.62955

