15
frame 8 | Written by MDAnalysis XYZWriter (release 2.4.3)
       H   -16.63646   11.27779   11.83985
       O   -16.52724   10.32122   12.03921
      H1   -17.35457   10.12887   12.46456
       H   -13.84295   14.78380   12.96116
       O   -14.65215   15.21089   12.76996
      H1   -15.20538   14.96876   13.56458
       H   -18.01560   12.89763   12.46304
       O   -18.71252   12.38317   12.94130
      H1   -18.49481   12.29521   13.89180
       H   -15.49496   14.04150   11.72799
       O   -16.30456   13.49170   11.43460
      H1   -16.38860   13.71894   10.49788
       H   -15.26797   15.84313    8.40586
       O   -15.69413   15.62635    9.25723
      H1   -15.17019   16.06276    9.95069

