15
frame 7 | Written by MDAnalysis XYZWriter (release 2.4.3)
       H    15.83702  -15.17467   17.48067
       O    16.09739  -15.97738   17.84307
      H1    17.05623  -16.00848   17.74794
       H    18.53973  -15.15058   16.55905
       O    18.66140  -15.83454   17.25969
      H1    19.12653  -16.55297   16.84880
       H    16.61328  -17.96668   17.64116
       O    16.72568  -18.43119   16.82770
      H1    16.66775  -19.38116   16.92201
       H    18.23591  -18.15680   19.43809
       O    18.86456  -18.67658   18.93581
      H1    19.69672  -18.36713   19.22210
       H    18.45263  -18.61931   15.95633
       O    19.14903  -18.85272   15.27092
      H1    19.83754  -19.37428   15.73475

