15
frame 7 | Written by MDAnalysis XYZWriter (release 2.4.3)
       H     7.39650    3.75842    3.85207
       O     7.73368    2.86008    3.86845
      H1     7.18301    2.47948    4.58589
       H    12.48769    2.48763    5.47336
       O    12.00711    3.25184    5.86228
      H1    11.06592    2.85602    5.93252
       H     6.49640    0.54933    5.74688
       O     6.72241    1.46698    6.04411
      H1     7.24342    1.23876    6.80869
       H     9.96085   -0.77493    6.70640
       O     9.10878   -0.39535    6.75593
      H1     8.68599   -0.85735    6.01297
       H     9.39639    1.28316    6.05433
       O     9.56883    2.20574    5.86718
      H1     8.91723    2.47702    5.15098

