15
frame 8 | Written by MDAnalysis XYZWriter (release 2.4.3)
       H     1.39221    7.72430   -0.21672
       O     2.16266    7.31774    0.25790
      H1     2.39576    7.86854    1.01576
       H     6.30371    8.06838    1.01598
       O     5.50870    7.59292    0.67013
      H1     4.78306    7.82141    1.30814
       H     3.58090    8.70708    3.47976
       O     3.08109    8.72581    2.65271
      H1     2.66074    9.57532    2.74125
       H     1.87496   12.09296    3.55761
       O     2.33162   11.50989    2.95633
      H1     2.33207   11.94758    2.10277
       H     1.39698    8.30047    3.61979
       O     0.55011    8.56686    3.99590
      H1     0.24611    7.71339    4.29551

