15
frame 8 | Written by MDAnalysis XYZWriter (release 2.4.3)
       H    -3.24058   -2.87549  -17.67997
       O    -3.18731   -2.72422  -16.62906
      H1    -3.08826   -1.74700  -16.58898
       H    -2.31265   -5.56129  -15.68426
       O    -2.54540   -5.32354  -16.59465
      H1    -2.90593   -4.45409  -16.59375
       H    -4.13573   -2.36707  -19.59857
       O    -3.54429   -3.06364  -19.19412
      H1    -3.12175   -3.59393  -19.88377
       H    -0.77229   -6.39663  -18.80498
       O    -1.09470   -5.51294  -19.07253
      H1    -1.74883   -5.24125  -18.37659
       H    -0.03431   -2.09777  -16.54621
       O    -0.53690   -2.66409  -17.20577
      H1    -1.44997   -2.59911  -16.94926

