15
frame 8 | Written by MDAnalysis XYZWriter (release 2.4.3)
       H    17.09654   16.21493    2.20288
       O    17.16917   16.29568    1.25324
      H1    17.16211   15.36000    1.04335
       H    13.37625   18.90934   -0.54038
       O    14.03630   19.06225   -1.15464
      H1    14.29715   18.21699   -1.58418
       H    16.39063   17.75564    0.79184
       O    16.13826   18.69473    0.73649
      H1    15.34267   18.81121    0.21224
       H    17.41355   15.98552    4.05667
       O    16.73372   16.66282    4.12531
      H1    17.13683   17.44622    4.47579
       H    17.64592   19.06063   -0.37252
       O    18.53458   19.24693   -0.70006
      H1    18.49903   19.44182   -1.66429

