15
frame 8 | Written by MDAnalysis XYZWriter (release 2.4.3)
       H     7.19187  -17.92552   17.42146
       O     8.07840  -17.95403   17.00540
      H1     8.18236  -17.11551   16.49258
       H     8.66037  -13.44637   13.08006
       O     9.07250  -14.28459   13.37389
      H1     8.65038  -14.56485   14.21766
       H     8.71555  -15.94237   18.38895
       O     9.24506  -15.45874   19.00535
      H1     9.67675  -14.71865   18.57389
       H     7.41731  -15.69821   15.49794
       O     8.14960  -15.38733   16.04117
      H1     7.77028  -14.62957   16.50931
       H     6.67565  -12.81695   17.89802
       O     6.62026  -13.76086   17.72292
      H1     5.70422  -13.86882   17.52778

