15
frame 8 | Written by MDAnalysis XYZWriter (release 2.4.3)
       H     2.65189   16.25299   15.67991
       O     2.46126   16.46463   16.63386
      H1     3.08658   16.04132   17.18481
       H     3.52111   14.61644   13.67330
       O     3.72511   13.66759   13.55447
      H1     4.14131   13.51574   12.67665
       H     4.45045   17.64509   12.05776
       O     3.80082   18.35496   11.81851
      H1     3.32985   17.88200   11.13498
       H     0.65116   17.38254   13.61183
       O    -0.11870   17.89040   13.86814
      H1    -0.78161   17.19595   13.94777
       H     3.02256   16.99107   13.23969
       O     2.62192   16.27794   13.74781
      H1     2.09562   15.79301   13.10706

