15
frame 8 | Written by MDAnalysis XYZWriter (release 2.4.3)
       H    -7.76121    1.57997   11.28663
       O    -7.00808    1.09820   11.56825
      H1    -6.55517    1.71369   12.13991
       H    -7.21267    1.45382   14.89462
       O    -6.83925    2.23575   15.25223
      H1    -7.60158    2.96009   15.19129
       H    -5.42936   -2.26959   13.38627
       O    -6.12730   -2.69882   13.96794
      H1    -6.86420   -2.11065   13.88584
       H    -8.17602    0.15494   13.31078
       O    -8.20720   -0.13804   14.18973
      H1    -9.11545   -0.14288   14.53369
       H   -10.91115    0.78114   15.95008
       O   -10.70951    0.33244   15.13264
      H1   -11.45619   -0.29337   15.10954

