15
frame 9 | Written by MDAnalysis XYZWriter (release 2.4.3)
       H    13.18811    0.92419   -6.85167
       O    13.53329    0.51284   -7.66142
      H1    12.96402   -0.20027   -7.72605
       H    14.16228    3.53859   -5.39986
       O    13.87072    3.46777   -4.51420
      H1    13.31581    4.31234   -4.42093
       H    12.65496    0.15619   -2.23642
       O    11.75914    0.07947   -2.59982
      H1    11.54924   -0.84520   -2.65575
       H    12.93267    2.02563   -4.60871
       O    12.47206    1.19491   -4.92884
      H1    12.23506    0.73132   -4.11655
       H    10.92296    2.24828   -5.43453
       O    10.43095    2.77281   -6.10790
      H1    11.04470    3.40383   -6.38443

