15
frame 0 | Written by MDAnalysis XYZWriter (release 2.4.3)
       H     3.55159  -14.69156    0.97038
       O     3.67418  -15.07560    1.82992
      H1     4.17002  -15.85870    1.69345
       H    -0.44143  -14.87707    3.48054
       O     0.05245  -15.21745    4.23590
      H1     0.97701  -14.93972    4.00631
       H     3.93698  -17.13398    5.16227
       O     3.50258  -17.97998    5.11213
      H1     3.20974  -17.98102    4.20364
       H     4.78818  -11.60605    5.09500
       O     4.20670  -12.19054    4.65408
      H1     4.58762  -12.46003    3.80918
       H     3.16403  -13.61915    4.31358
       O     2.80101  -14.50696    4.15683
      H1     3.02899  -14.71165    3.18851

