15
frame 9 | Written by MDAnalysis XYZWriter (release 2.4.3)
       H   -14.97152    3.25392   12.50847
       O   -15.40621    3.64934   13.23934
      H1   -15.45954    4.57052   12.96065
       H   -17.25596    6.09245   15.54902
       O   -16.26950    6.19833   15.38274
      H1   -16.02007    6.66173   14.56075
       H   -15.93948    7.38789   16.62564
       O   -15.66036    8.17034   17.18738
      H1   -15.40504    8.81184   16.54639
       H   -15.60445    6.50813   12.05700
       O   -15.11998    6.42182   12.91576
      H1   -14.53117    7.16829   13.03930
       H   -14.76435    4.52833   16.42421
       O   -14.30486    3.96841   15.79459
      H1   -15.02214    4.01436   15.08953

