15
frame 8 | Written by MDAnalysis XYZWriter (release 2.4.3)
       H   -14.39064    8.93689  -10.66260
       O   -13.57500    9.09759  -11.15299
      H1   -13.58768   10.03973  -11.36697
       H   -16.40119    6.18055  -13.43556
       O   -15.59083    5.73435  -13.17173
      H1   -14.89022    6.37508  -13.24254
       H   -15.77227   10.89485  -14.50524
       O   -16.02420   10.01952  -14.41224
      H1   -16.87344   10.05749  -13.99156
       H   -12.52202    6.78320  -14.79454
       O   -12.00884    6.24033  -15.38998
      H1   -11.15617    6.04680  -14.91637
       H   -13.77618    8.03603  -12.75318
       O   -13.79855    7.67591  -13.65748
      H1   -14.46136    8.29757  -13.99817

