15
frame 9 | Written by MDAnalysis XYZWriter (release 2.4.3)
       H   -10.23208   19.69176   17.03602
       O    -9.99611   18.73865   17.14703
      H1    -9.59590   18.32800   16.33022
       H   -11.76787   15.15416   19.46448
       O   -12.68527   15.12768   19.17694
      H1   -13.03240   15.96824   19.52237
       H   -15.00742   14.67605   15.63079
       O   -15.37141   15.33729   15.05138
      H1   -15.64510   16.10969   15.60852
       H   -12.06943   18.32440   16.86043
       O   -12.66159   17.54092   16.91115
      H1   -12.49439   17.18015   17.77218
       H   -10.64551   16.23744   15.52721
       O   -11.34681   15.59766   15.56978
      H1   -12.05837   16.13774   15.97742

