15
frame 8 | Written by MDAnalysis XYZWriter (release 2.4.3)
       H   -12.04258    1.83727   12.56111
       O   -12.07970    0.90467   12.85576
      H1   -11.58834    0.92294   13.68355
       H    -8.79355    3.25582   10.04038
       O    -9.15389    2.52211   10.60297
      H1    -9.98445    2.93753   10.93648
       H   -12.06892   -0.05409   11.42453
       O   -12.35649   -0.49194   10.57241
      H1   -13.26868   -0.63055   10.63412
       H   -15.17421   -0.11116   12.80916
       O   -14.83132    0.74010   13.09012
      H1   -13.87645    0.73307   12.91435
       H   -12.43822    3.43698   11.10150
       O   -11.65042    3.60910   11.63739
      H1   -12.02792    3.84999   12.47019

