15
frame 9 | Written by MDAnalysis XYZWriter (release 2.4.3)
       H     1.99943  -13.99312   14.92106
       O     1.38231  -14.59283   15.35810
      H1     1.57661  -15.42820   15.00887
       H     3.37419  -11.89925   14.89447
       O     3.14000  -12.68156   14.37628
      H1     2.85818  -12.31563   13.52634
       H     3.11595  -15.65463   17.58818
       O     3.97288  -15.44284   17.15070
      H1     3.89890  -15.77253   16.24444
       H     5.08078  -14.98529   13.69853
       O     4.68201  -15.72776   14.20277
      H1     3.97916  -15.90215   13.51841
       H     1.22527  -13.35079   16.71658
       O     0.85974  -12.82154   17.48310
      H1     1.62447  -12.25983   17.73332

