15
frame 8 | Written by MDAnalysis XYZWriter (release 2.4.3)
       H    15.24273    7.19717   18.29456
       O    15.90224    6.67255   17.85943
      H1    15.76314    6.57483   16.92120
       H    17.28058   11.44199   19.12314
       O    16.54389   10.87541   18.86930
      H1    16.41834   10.91469   17.91208
       H    14.21401    8.08634   19.82763
       O    13.91413    8.16461   18.91813
      H1    13.05560    7.68206   18.90604
       H    18.16133    6.59220   15.60397
       O    19.06184    6.85594   15.59892
      H1    19.26109    7.20819   16.50336
       H    17.43468    9.25797   19.01390
       O    17.73567    8.30923   18.91282
      H1    17.12909    7.90392   18.26359

