15
frame 0 | Written by MDAnalysis XYZWriter (release 2.4.3)
       H   -12.52027   -2.82726   -1.63721
       O   -12.44168   -1.93734   -1.25625
      H1   -11.99123   -2.19004   -0.43089
       H   -14.85944   -3.23187   -3.63781
       O   -15.07392   -2.46083   -3.06084
      H1   -14.38602   -1.79611   -3.29291
       H   -13.31204    0.29344   -3.65949
       O   -13.40132   -0.55955   -4.13113
      H1   -13.92650   -0.33485   -4.90471
       H   -15.68566   -2.11785   -1.48932
       O   -16.11116   -1.94805   -0.63869
      H1   -17.05864   -2.03480   -0.78650
       H   -12.26953    1.38427   -1.54223
       O   -13.03001    0.77752   -1.54481
      H1   -12.73102   -0.08650   -1.55200

