15
frame 0 | Written by MDAnalysis XYZWriter (release 2.4.3)
       H   -13.96882    3.67422  -10.86628
       O   -13.12576    3.88260  -10.49008
      H1   -13.08896    4.84639  -10.31049
       H   -14.23365    5.20698   -7.51087
       O   -14.07046    4.28194   -7.49864
      H1   -14.47774    3.95095   -8.32318
       H   -16.82135    2.84123   -5.76200
       O   -16.05517    2.30187   -5.56050
      H1   -15.31465    2.87410   -5.86811
       H   -12.82996    3.07234   -5.77784
       O   -13.10745    3.24203   -4.85949
      H1   -13.74508    3.92480   -4.94992
       H   -14.74792    7.13436   -8.74676
       O   -14.86295    6.82728   -7.81842
      H1   -15.80490    6.98385   -7.61077

