15
frame 10 | Written by MDAnalysis XYZWriter (release 2.4.3)
       H   -16.80619    6.41310   10.24300
       O   -16.62469    6.86853   11.08489
      H1   -17.42402    7.21067   11.40882
       H   -20.10567    5.20435   11.37926
       O   -19.42355    5.33150   12.06541
      H1   -19.18827    4.48952   12.51031
       H   -15.13202    7.64850   10.88897
       O   -14.24916    8.07840   10.99399
      H1   -14.45370    8.96290   11.37894
       H   -15.36291    6.31658   12.76540
       O   -15.10093    5.84585   13.54774
      H1   -14.39050    6.35093   14.02835
       H   -18.95379    6.98859   12.20621
       O   -18.74283    7.91592   12.25410
      H1   -18.51672    8.21946   13.18540

