15
frame 10 | Written by MDAnalysis XYZWriter (release 2.4.3)
       H   -18.28997   14.62507    4.00756
       O   -18.58982   15.30904    3.38918
      H1   -19.55309   15.51541    3.48247
       H   -19.08945   18.30355    0.92995
       O   -18.59806   19.14170    0.93391
      H1   -19.09955   19.90341    0.59976
       H   -17.96393   18.35278    2.72871
       O   -17.53407   17.87359    3.47196
      H1   -17.80894   16.95914    3.31222
       H   -16.35340   19.55720   -1.56321
       O   -15.64202   19.36436   -2.17445
      H1   -14.87232   19.20784   -1.66840
       H   -17.52390   16.03778   -1.65873
       O   -18.21598   15.55330   -1.16492
      H1   -18.78617   16.22199   -0.80613

