15
frame 9 | Written by MDAnalysis XYZWriter (release 2.4.3)
       H    13.24132    5.24002   15.63886
       O    13.01682    4.55939   16.23282
      H1    12.66434    3.91324   15.64430
       H    11.41953    6.57763   17.99889
       O    11.48913    5.66949   18.31798
      H1    11.99949    5.14598   17.62534
       H    11.03340    3.16798   14.02487
       O    11.70290    2.66076   14.53243
      H1    12.42764    2.50274   13.97579
       H    14.96369    2.00511   15.88267
       O    15.28617    2.91711   16.12190
      H1    14.53254    3.47865   16.22760
       H    11.74885    7.09661   15.04620
       O    12.40381    6.76476   14.37154
      H1    12.75488    7.60389   14.06707

