15
frame 1 | Written by MDAnalysis XYZWriter (release 2.4.3)
       H     8.09434   -5.83421  -14.46985
       O     8.67223   -6.47278  -14.01580
      H1     8.66330   -6.15790  -13.08174
       H    10.65682   -8.84649  -11.46716
       O     9.77956   -8.51856  -11.37366
      H1     9.85589   -7.60920  -11.19112
       H    11.97054  -11.22495  -11.09539
       O    11.52934  -10.78366  -11.87435
      H1    12.19599  -10.12219  -12.12216
       H     8.38739   -9.88312  -11.99052
       O     7.78922  -10.43464  -12.43425
      H1     8.08491  -11.37129  -12.27895
       H     9.91282   -5.10156  -11.70876
       O     9.47720   -5.75840  -11.17823
      H1     8.63528   -5.39508  -10.83338

