15
frame 10 | Written by MDAnalysis XYZWriter (release 2.4.3)
       H     2.49222   18.29691   -3.10958
       O     2.40409   18.30934   -2.09232
      H1     1.81465   19.02036   -1.86079
       H     6.27449   19.63081   -4.62165
       O     6.07825   18.71988   -4.29821
      H1     5.88146   18.86626   -3.34161
       H     5.19202   17.66672   -1.22771
       O     4.92199   18.47404   -1.69695
      H1     3.95673   18.34995   -1.76204
       H     3.26564   17.27227   -4.96644
       O     3.30567   18.14049   -4.60644
      H1     4.17937   18.55670   -4.61758
       H     8.05724   18.95379    0.13799
       O     7.62321   18.44936   -0.59008
      H1     7.77667   19.05684   -1.33793

