15
frame 9 | Written by MDAnalysis XYZWriter (release 2.4.3)
       H   -16.26019  -18.86977   15.90432
       O   -16.12814  -18.57297   15.01127
      H1   -16.44285  -19.28995   14.43884
       H   -11.81615  -16.06316   19.76474
       O   -11.56538  -15.68481   18.90836
      H1   -10.99238  -14.91409   19.09794
       H   -13.48380  -19.62961   18.73386
       O   -14.00202  -18.85732   18.69847
      H1   -13.62740  -18.33840   18.04453
       H   -16.93744  -19.38053   18.21709
       O   -16.20028  -19.75164   17.65145
      H1   -15.34412  -19.43837   17.89263
       H   -13.39989  -17.21416   16.00611
       O   -12.86758  -18.00905   16.22425
      H1   -12.00401  -17.73038   16.40040

