15
frame 0 | Written by MDAnalysis XYZWriter (release 2.4.3)
       H   -11.84301  -14.07578   16.67757
       O   -11.25358  -13.72363   17.38093
      H1   -11.52638  -12.80841   17.67661
       H    -9.57606  -15.97295   17.18778
       O    -9.12751  -16.52481   16.61147
      H1    -8.41420  -15.88320   16.17978
       H    -8.85981  -12.65302   15.37770
       O    -8.66829  -12.79082   16.28178
      H1    -9.43298  -13.31194   16.59917
       H   -13.14472  -14.08904   14.95154
       O   -12.62645  -14.79503   15.25623
      H1   -12.04394  -15.00584   14.50504
       H    -9.78581  -13.97357   20.11060
       O   -10.04663  -14.77921   19.61901
      H1   -10.54084  -14.42439   18.86234

