15
frame 9 | Written by MDAnalysis XYZWriter (release 2.4.3)
       H    17.65393    6.73543    6.40303
       O    18.39208    6.13205    6.66186
      H1    19.07418    6.46007    6.06038
       H    12.62435    7.28262    6.11833
       O    13.05912    7.85191    5.45864
      H1    12.32584    8.44403    5.26466
       H    15.45308    7.02651    5.99626
       O    16.27697    7.31271    5.49912
      H1    16.06073    7.02384    4.61399
       H    14.03561    9.27824    6.33762
       O    14.64031    9.82961    6.82029
      H1    15.54202    9.47582    6.78699
       H    14.12641    7.43777    8.04404
       O    14.99654    7.08915    8.12373
      H1    15.19628    7.07912    9.06944

