15
frame 10 | Written by MDAnalysis XYZWriter (release 2.4.3)
       H    -7.44020    2.53013   12.12835
       O    -7.20071    1.64789   12.34709
      H1    -6.51764    1.77429   12.95848
       H    -9.47077    1.68598    9.43984
       O    -9.42347    0.81997    9.83087
      H1    -9.42794    0.96259   10.79064
       H    -5.14482   -3.06167    9.58545
       O    -4.45778   -2.41051    9.56619
      H1    -4.97424   -1.61699    9.89486
       H    -6.60229   -0.08733    9.49959
       O    -5.92730    0.09788   10.11334
      H1    -6.49986    0.38007   10.84346
       H    -4.41568    2.62483   10.33124
       O    -4.59059    2.39498    9.37652
      H1    -5.05020    1.56456    9.28321

