15
frame 9 | Written by MDAnalysis XYZWriter (release 2.4.3)
       H    10.46757   -2.71265   -2.72073
       O    11.21645   -2.43023   -3.21053
      H1    11.98416   -2.91619   -2.74685
       H     7.02249   -1.91780   -5.30135
       O     7.95191   -2.17714   -5.06507
      H1     8.18678   -1.67272   -4.23571
       H     9.54826   -0.86076   -7.55705
       O     9.31917   -1.80859   -7.49705
      H1     8.91588   -1.88399   -6.63581
       H     7.99498    0.11775   -2.30942
       O     7.78104   -0.75788   -2.67196
      H1     8.18643   -1.25192   -1.94109
       H     6.28936   -4.68945   -4.93242
       O     7.14170   -4.74010   -4.44262
      H1     7.56471   -3.87910   -4.66878

