15
frame 10 | Written by MDAnalysis XYZWriter (release 2.4.3)
       H    10.87985   18.43287   -3.96191
       O    11.25321   18.32743   -4.83209
      H1    12.18455   18.48327   -4.92506
       H    14.08551   18.88131   -9.21581
       O    15.07915   18.78451   -9.11850
      H1    15.39933   18.36229   -9.95671
       H    14.10091   19.92237   -5.77461
       O    14.06522   18.96270   -5.81145
      H1    14.55283   18.71182   -6.58330
       H    16.49211   18.19328   -3.89190
       O    17.29523   18.76118   -3.80521
      H1    17.26796   19.28840   -4.60556
       H    14.34015   17.35386   -4.13761
       O    14.96331   17.19947   -3.40411
      H1    15.18120   16.24513   -3.38924

