15
frame 10 | Written by MDAnalysis XYZWriter (release 2.4.3)
       H    11.16111   14.70160  -19.51002
       O    10.17136   14.70129  -19.55086
      H1     9.88450   14.70362  -18.65859
       H    12.17172   17.05394  -19.63475
       O    11.71247   16.86616  -18.78869
      H1    10.90818   16.36560  -19.06075
       H    10.13152   16.80508  -16.53704
       O     9.41560   16.24285  -16.79383
      H1     8.63673   16.63442  -16.40038
       H     6.45473   13.25215  -17.51170
       O     7.12730   13.25082  -18.20530
      H1     7.93629   13.44110  -17.69418
       H     9.32323   14.39922  -16.37439
       O     9.28717   13.40497  -16.48414
      H1     8.95280   13.00791  -15.62269

