15
frame 9 | Written by MDAnalysis XYZWriter (release 2.4.3)
       H   -10.20935  -14.65981    6.98060
       O    -9.86444  -15.46555    7.28431
      H1   -10.45333  -15.74799    7.97663
       H   -10.52215  -16.07127    4.24028
       O   -11.13720  -15.63078    4.83075
      H1   -10.67102  -15.80941    5.66965
       H    -8.23974  -17.46715    7.17338
       O    -7.60181  -17.59942    7.90094
      H1    -6.97981  -16.84921    8.03790
       H    -8.17137  -14.71443    7.74088
       O    -7.23600  -14.47456    7.70088
      H1    -6.87161  -14.54084    8.61050
       H   -10.65597  -16.89242    9.60304
       O   -11.39605  -16.29474    9.42953
      H1   -12.24322  -16.75160    9.39598

