15
frame 9 | Written by MDAnalysis XYZWriter (release 2.4.3)
       H     7.21973   -9.61688  -10.45486
       O     6.93828   -9.01162   -9.74793
      H1     7.69768   -8.66708   -9.32917
       H     3.56565   -4.47855   -9.31638
       O     3.02223   -5.01870   -9.95964
      H1     3.59084   -5.79989   -9.97121
       H     2.66909   -9.74163   -9.10929
       O     2.61515   -8.79609   -8.92179
      H1     3.53001   -8.41158   -8.98010
       H     3.44678   -8.06280  -13.28796
       O     3.88302   -8.30627  -12.44042
      H1     3.21747   -7.98329  -11.89304
       H     5.01336   -6.98335   -8.57476
       O     4.68696   -7.36723   -9.34955
      H1     5.23116   -8.00495   -9.73774

