162
frame 9 | Written by MDAnalysis XYZWriter (release 2.4.3)
       H    -1.56019    8.89037    7.80490
       O    -1.31905    9.89316    7.71861
      H1    -1.99309   10.28473    8.25845
       H    -2.53013   12.68852    3.09237
       O    -2.82625   13.59586    3.09167
      H1    -3.77516   13.49490    2.84093
       H    -2.22283    3.81990    1.39820
       O    -1.46070    3.25346    1.01751
      H1    -1.35746    2.57605    1.69515
       H     1.20861    3.69412    5.01893
       O     1.08272    4.56459    5.31034
      H1     1.96196    4.92592    5.33967
       H    -8.90791    8.25889    6.38607
       O    -8.33665    7.55032    6.78540
      H1    -8.98290    7.13344    7.40673
       H    -0.99628    6.76205    5.11329
       O    -0.27149    7.02796    5.66053
      H1     0.23270    6.22925    5.71345
       H    -3.25960    7.56319   -0.82831
       O    -3.94052    6.95587   -0.49649
      H1    -4.11295    6.39251   -1.31271
       H    -9.74268    4.45677    4.78858
       O    -9.22393    4.55098    3.99218
      H1    -8.40266    3.98711    4.13021
       H    -6.24820   13.29830    8.01420
       O    -6.13880   14.22594    7.78211
      H1    -7.05352   14.60293    7.84224
       H   -11.25171    4.06188    6.66020
       O   -10.36166    3.75632    6.47596
      H1    -9.72956    4.14902    7.13550
       H    -5.83998    4.46451    1.19097
       O    -6.09999    4.38270    0.27254
      H1    -6.76489    3.69874    0.33143
       H    -1.88825    5.32071    9.41315
       O    -2.31778    4.72284    8.75089
      H1    -3.17734    4.46862    9.16789
       H    -8.72435    8.14993   10.23017
       O    -9.16947    8.84830   10.69178
      H1    -8.69021    8.99721   11.53603
       H    -3.89895    5.41180    0.70753
       O    -3.32638    5.18530    1.48532
      H1    -2.74209    5.94810    1.63587
       H   -11.10613    9.67529    6.36568
       O   -10.38074    9.27460    5.87198
      H1   -10.50672    9.43078    4.94344
       H    -2.32926    2.21486    4.64850
       O    -2.89625    2.71789    4.02689
      H1    -3.56960    2.11808    3.62136
       H    -9.12479    6.04404    3.15952
       O    -9.08003    6.97288    2.78496
      H1    -8.10599    7.24302    2.67320
       H    -8.71806   12.24034    3.25369
       O    -8.34338   11.50876    2.78822
      H1    -8.54069   11.60912    1.86063
       H    -2.21068    7.30500   10.56790
       O    -2.04016    6.38586   10.84080
      H1    -2.65719    6.12307   11.53706
       H    -5.04265    6.39073    9.17515
       O    -4.82693    6.91487    9.96328
      H1    -5.18648    7.74720    9.60862
       H    -3.50199    7.57747    1.37435
       O    -3.12218    7.83928    2.27414
      H1    -3.46584    7.22454    3.02509
       H    -5.95633    8.84754    1.81085
       O    -6.23634    8.07563    1.28066
      H1    -5.60768    8.13532    0.54987
       H     0.55731   10.31450   11.26621
       O    -0.07279   11.03750   11.38340
      H1    -0.44429   11.18375   10.52164
       H   -10.92036    7.71841    5.53449
       O   -11.48499    6.85662    5.49039
      H1   -12.39601    7.25872    5.37200
       H    -6.90824    1.72546    5.71695
       O    -6.93684    2.55895    5.16975
      H1    -6.20903    3.22892    5.39470
       H    -8.31218    4.83465    9.00040
       O    -8.26470    3.99027    8.51486
      H1    -7.53718    4.06753    7.94813
       H    -2.28274    4.80800    4.15999
       O    -2.49490    5.72178    4.44273
      H1    -3.28607    5.64424    5.00956
       H    -3.79405    8.60212   10.14114
       O    -3.05275    9.18845   10.09118
      H1    -3.10627    9.59544   10.96205
       H    -2.19732    6.40074    7.91765
       O    -2.14973    7.28657    7.51835
      H1    -1.49863    7.11363    6.81324
       H    -6.32728   13.07816    2.15163
       O    -5.51078   13.58681    1.86858
      H1    -5.76832   14.50747    1.93430
       H    -5.83880    7.98464    5.15016
       O    -6.65064    7.65943    4.63864
      H1    -7.34981    7.56239    5.34488
       H    -5.65244   10.59334    3.98871
       O    -5.92348   10.34100    3.11379
      H1    -6.79492   10.73000    2.96538
       H    -5.69572    9.63953   -0.95194
       O    -4.81973    9.61625   -0.65752
      H1    -4.73499   10.07773    0.14592
       H    -2.15142   13.66370    7.13527
       O    -1.59569   13.50171    7.90727
      H1    -0.67551   13.68298    7.72294
       H    -5.52973    4.50961    8.28758
       O    -5.63373    5.27881    7.70540
      H1    -5.29696    5.05477    6.81190
       H    -0.07270    8.57498    2.95173
       O    -0.65000    9.04548    2.32834
      H1    -1.45575    8.51062    2.26821
       H    -5.65442    6.30380   11.84132
       O    -6.54498    6.34229   12.23132
      H1    -6.42405    6.58382   13.20356
       H    -1.84438   11.23993    4.41144
       O    -1.19327   11.50234    3.75588
      H1    -0.95172   10.64262    3.30933
       H    -5.54980    8.47761    7.53178
       O    -6.12727    8.64499    8.32576
      H1    -6.90324    8.09788    8.10082
       H    -9.29447    9.95430    3.15500
       O   -10.12602    9.43195    3.29686
      H1    -9.80516    8.50481    3.27107
       H    -0.92066    3.50427    8.22351
       O    -0.13352    3.27206    7.66826
      H1    -0.03281    3.93218    7.01974
       H    -9.00312    5.99149   10.67510
       O    -8.47819    6.32316    9.89424
      H1    -7.53869    6.14023   10.22682
       H    -1.97187    9.86099    5.94848
       O    -2.74957   10.05541    5.40312
      H1    -3.43018   10.63653    5.87338
       H     1.83200    8.70496    3.82429
       O     1.20252    9.02155    4.46611
      H1     0.89316    8.22936    4.90624
       H    -5.33078   13.80314    9.58149
       O    -5.45577   13.08437   10.15879
      H1    -5.69745   12.33755    9.55688
       H    -9.11123   11.93283    7.87543
       O    -9.14744   12.02844    6.91068
      H1    -9.21518   11.13949    6.70650
       H    -5.44369    4.63982    4.38286
       O    -4.99564    4.25308    5.18027
      H1    -4.24363    3.68978    4.82792
       H    -9.27257   10.46218    9.90267
       O    -9.30544   11.37358    9.62530
      H1   -10.12808   11.79697    9.91308
       H    -6.81177   10.64386    8.26626
       O    -6.70692   11.57927    8.03939
      H1    -7.58258   11.76940    7.66301
       H    -4.74275    5.55723    2.51446
       O    -5.64813    5.43212    2.83058
      H1    -5.89115    6.33535    3.12047
       H    -4.45801    3.95788   10.54142
       O    -4.56840    3.59378    9.64491
      H1    -4.93913    2.73378    9.86251
       H    -3.74886   14.67560    6.03892
       O    -3.22095   13.86435    5.86132
      H1    -2.99035   13.81361    4.96330
       H    -3.92894    7.45702    6.74755
       O    -4.38132    7.99240    6.11517
      H1    -3.73676    8.73558    5.95303
       H    -4.57368   12.52060    5.99057
       O    -4.99490   11.67359    5.89849
      H1    -5.64470   11.58286    6.63807

