162
frame 11 | Written by MDAnalysis XYZWriter (release 2.4.3)
       H     8.88386   -9.12350  -14.06750
       O     8.11310   -9.28327  -13.46528
      H1     8.02627  -10.27517  -13.47308
       H     6.33278   -5.12474  -13.08929
       O     7.11583   -4.97996  -12.59989
      H1     7.13531   -5.50663  -11.77281
       H     8.65265   -4.53389  -15.16860
       O     8.04370   -3.96524  -15.71964
      H1     7.36813   -3.58221  -15.18908
       H    13.64223   -7.07768  -18.71352
       O    13.58659   -7.56546  -17.87733
      H1    14.07225   -8.37962  -18.15162
       H     7.74986   -8.66614  -11.76235
       O     7.58354   -8.29764  -10.89583
      H1     8.16610   -7.56477  -10.71026
       H     7.91904    1.38251  -16.99761
       O     7.06597    1.24888  -17.42375
      H1     7.23235    0.48238  -17.91800
       H     3.71085  -11.56252  -17.70156
       O     3.01106  -11.15778  -18.24286
      H1     2.18277  -11.61345  -18.17846
       H     7.60237   -6.03025  -18.69895
       O     6.97163   -6.52579  -19.21990
      H1     6.84940   -6.06584  -20.04901
       H    10.91119    0.28847  -17.82195
       O    11.12943   -0.15915  -16.96698
      H1    10.64152   -1.00234  -16.92046
       H    15.81686   -5.73730  -13.46955
       O    15.16339   -5.96242  -14.14446
      H1    14.32309   -6.07472  -13.75018
       H     8.37201  -14.65604  -18.81800
       O     8.21056  -14.68475  -17.83983
      H1     8.78385  -13.90681  -17.61993
       H     5.94722   -5.84956  -17.83520
       O     5.27277   -5.36514  -17.29424
      H1     5.49939   -5.62773  -16.36399
       H    11.03526   -6.56087  -16.84260
       O    10.63145   -6.90430  -17.62978
      H1     9.96187   -6.32595  -17.97498
       H     9.22254   -8.68768  -16.13172
       O     9.85044   -8.49172  -15.41746
      H1     9.79548   -7.53768  -15.16883
       H     4.21984   -9.13753  -17.93299
       O     4.32372   -8.24030  -18.27591
      H1     5.20870   -7.88877  -18.13687
       H    11.03192   -3.99633  -11.03814
       O    10.88937   -4.48282  -11.83788
      H1    11.02136   -3.86510  -12.51760
       H     9.85314    0.97822  -15.98314
       O     9.11090    1.48422  -15.67987
      H1     9.09480    1.36436  -14.73990
       H    14.38085   -1.49935  -17.31274
       O    13.76744   -1.01747  -17.93038
      H1    12.98265   -0.70973  -17.42890
       H    11.66595   -8.60551  -15.69019
       O    12.55130   -8.29605  -15.50194
      H1    12.88638   -8.05632  -16.33092
       H    10.39204   -1.99764  -13.04627
       O    10.93660   -2.52323  -13.69111
      H1    11.83018   -2.23659  -13.61505
       H     6.54026   -3.28060  -13.02824
       O     6.54716   -2.57319  -13.69647
      H1     5.67956   -2.64168  -14.22743
       H    13.02164  -11.51013  -19.11405
       O    13.36901  -10.98189  -18.41164
      H1    12.73726  -10.27451  -18.23231
       H    10.37938  -12.00693  -16.24571
       O    10.20663  -12.22131  -17.16199
      H1    10.81698  -12.96220  -17.29628
       H    -0.52055   -5.76463  -17.27658
       O    -0.49314   -4.81831  -17.56807
      H1    -0.72717   -4.38705  -16.75982
       H    14.66884  -10.17792  -19.23358
       O    15.31814   -9.79274  -19.78578
      H1    16.14480  -10.31300  -19.64565
       H     6.64786   -0.74675  -15.04662
       O     5.96391   -0.21009  -15.46895
      H1     6.32067    0.54334  -15.95480
       H     6.75066   -8.76883  -14.76940
       O     6.12344   -8.30371  -15.32629
      H1     5.34642   -8.08518  -14.76026
       H     2.94596   -9.68215  -12.73506
       O     2.69078  -10.28354  -13.45908
      H1     1.74156  -10.12311  -13.52614
       H     6.99880   -9.19418  -16.78685
       O     7.88399   -9.49988  -17.12433
      H1     7.71245   -9.50929  -18.07829
       H     2.26120   -4.99251  -19.17517
       O     1.73516   -4.20296  -19.01338
      H1     1.37131   -4.36019  -18.17532
       H     1.26714   -1.24356  -15.68111
       O     0.97011   -1.96405  -16.24394
      H1     0.09450   -2.26266  -15.95126
       H    10.60089   -2.76399  -15.37194
       O    10.50732   -3.01372  -16.26858
      H1     9.62432   -3.40001  -16.38527
       H    12.47459   -6.33205  -13.20817
       O    12.28622   -5.96807  -14.10286
      H1    12.52344   -6.77503  -14.55546
       H     0.04926   -9.66815  -19.40782
       O    -0.63553   -9.83132  -18.73527
      H1    -1.42239   -9.70679  -19.22869
       H     3.25878   -7.42382  -14.69320
       O     3.96564   -7.33345  -14.00532
      H1     3.48864   -7.19502  -13.09883
       H     4.39680   -4.35834  -14.39078
       O     5.09247   -5.02778  -14.52377
      H1     4.61194   -5.84307  -14.53136
       H     5.37596   -2.84678  -18.66712
       O     5.81856   -2.82538  -17.81467
      H1     5.53565   -3.64129  -17.38789
       H    10.26533   -5.58007  -13.59813
       O     9.39176   -5.70225  -14.12294
      H1     8.80749   -5.16874  -13.54492
       H     7.04679  -11.38709  -17.01432
       O     6.11274  -11.52925  -17.25017
      H1     5.88920  -12.44097  -16.91170
       H    14.01689  -11.30883  -14.14323
       O    13.08286  -11.15080  -14.23352
      H1    12.92514  -10.35007  -14.74326
       H    10.96451    2.32869  -18.80471
       O    10.81357    1.47006  -19.20708
      H1    11.66112    1.14378  -19.56488
       H     3.10837   -7.53871  -16.98781
       O     2.42912   -7.35571  -16.29228
      H1     2.42208   -6.39285  -16.23106
       H     3.27402   -4.67946  -16.49479
       O     2.45638   -4.55590  -16.01652
      H1     1.96422   -3.76972  -16.33506
       H     6.64576   -0.78638  -10.77058
       O     7.29474   -1.30862  -11.22550
      H1     6.96514   -1.53490  -12.07173
       H    10.85393   -8.82415  -18.04755
       O    11.06098   -9.69958  -18.40835
      H1    10.60464  -10.38227  -17.80507
       H     3.00611   -2.19226  -14.34530
       O     3.60526   -2.80621  -13.93503
      H1     3.62675   -2.45100  -12.99150
       H    11.71778   -3.52128  -17.57513
       O    12.09917   -3.24495  -18.41173
      H1    12.62833   -2.46488  -18.13487
       H     8.87598  -12.00307  -13.11560
       O     8.58129  -12.11722  -14.01652
      H1     7.68416  -12.61157  -13.94466
       H     9.43521   -5.58685  -11.03825
       O     8.86778   -5.78396  -10.24169
      H1     8.58639   -4.87752   -9.98662
       H     0.14886   -5.54032  -13.54151
       O     0.46368   -4.60513  -13.71465
      H1     1.28637   -4.69249  -14.19773
       H    -0.25921   -8.32298  -17.81047
       O    -0.20481   -7.55087  -17.27629
      H1     0.69475   -7.50658  -16.93324
       H    14.74970   -5.71061  -17.01060
       O    15.64199   -5.54601  -16.70798
      H1    15.44157   -5.69735  -15.70333
       H     8.24623   -4.37378  -17.45631
       O     8.56756   -4.66427  -18.32473
      H1     9.15806   -4.01262  -18.65977
       H     7.05563   -1.84977  -18.44145
       O     7.46672   -1.10601  -18.92455
      H1     8.36616   -1.36176  -19.14630

