162
frame 11 | Written by MDAnalysis XYZWriter (release 2.4.3)
       H   -16.34604   -7.27335    8.80466
       O   -17.11571   -7.79991    8.98205
      H1   -17.91340   -7.18536    8.83396
       H   -13.02573  -11.35076    9.05868
       O   -13.52313  -11.74721    8.31998
      H1   -13.91554  -10.97974    7.95677
       H   -14.02352  -10.72591   19.77718
       O   -14.39069  -11.29868   19.10163
      H1   -15.11311  -10.66193   18.88978
       H   -12.89018  -12.01171   12.35513
       O   -12.90959  -12.91246   11.92830
      H1   -13.54750  -13.42246   12.37986
       H   -17.83397  -10.15370   11.93838
       O   -17.36139  -11.02513   11.92738
      H1   -18.05467  -11.69862   12.13702
       H   -12.32147   -8.46099   17.28530
       O   -13.20138   -8.39928   17.76258
      H1   -13.11975   -7.55335   18.20817
       H   -16.71023   -4.00245   15.10823
       O   -15.73597   -3.85628   15.09073
      H1   -15.64817   -3.47474   15.98502
       H   -13.28258   -2.96467   16.16914
       O   -12.45397   -3.05565   15.68290
      H1   -12.59004   -3.36583   14.77938
       H   -13.56561   -8.81090   16.05632
       O   -13.82103   -9.44655   15.39930
      H1   -14.18648  -10.18834   15.86944
       H   -11.82734   -6.86266   10.21085
       O   -12.74764   -7.16644    9.95383
      H1   -13.17548   -7.02827   10.83051
       H   -16.36803  -13.71385   18.21771
       O   -16.51738  -13.47615   17.28949
      H1   -15.70798  -12.95123   17.09380
       H   -19.65053  -15.85164   15.93887
       O   -19.25615  -16.53158   16.45927
      H1   -19.91108  -17.21150   16.50548
       H   -10.81436   -4.71606   18.67766
       O   -11.25536   -5.29926   19.35995
      H1   -10.74576   -6.18475   19.46155
       H   -10.05855   -8.03533   16.95944
       O   -10.31119   -8.74484   16.35689
      H1    -9.89604   -8.76630   15.51140
       H   -15.60154   -3.08308   13.22699
       O   -15.42950   -2.81113   12.30412
      H1   -16.25527   -2.34464   12.02573
       H   -18.22858   -8.07348   10.83586
       O   -18.60422   -8.45756   11.64752
      H1   -19.51508   -8.59646   11.34839
       H   -13.94810  -11.85843   17.55350
       O   -14.01522  -12.00130   16.57255
      H1   -13.35941  -12.75236   16.38338
       H   -10.33312   -8.57102   11.49164
       O   -10.36769   -9.50759   11.79904
      H1   -11.13057   -9.83733   11.25264
       H   -16.59197  -10.38468   13.76575
       O   -16.45490   -9.78001   14.52458
      H1   -15.54005   -9.56337   14.59671
       H    -8.08155  -12.71112   13.32726
       O    -8.75230  -13.30888   13.82228
      H1    -9.33895  -12.71486   14.31320
       H   -17.39165  -10.65344    7.72822
       O   -17.40532  -10.14613    6.86527
      H1   -17.11401   -9.23641    7.22278
       H   -15.31771   -6.35270    9.97649
       O   -15.25020   -5.86247    9.15754
      H1   -14.30781   -5.63505    9.03167
       H   -16.94392   -6.99612   14.57248
       O   -17.19989   -6.73879   13.70805
      H1   -17.74557   -7.45488   13.35837
       H   -12.49557   -9.96664   14.26365
       O   -12.15764  -10.60650   13.60549
      H1   -11.54577  -10.07847   13.08696
       H   -18.23395   -3.31687   15.06892
       O   -18.43990   -4.14724   14.66758
      H1   -18.53526   -4.92936   15.31512
       H   -11.74783  -13.82064   15.74468
       O   -12.40433  -14.21119   16.33432
      H1   -11.99896  -14.58718   17.10041
       H   -14.76853  -12.77541    9.08264
       O   -15.56157  -13.27982    9.11055
      H1   -15.70641  -13.57594    9.99412
       H   -12.69416   -3.57551   11.64726
       O   -12.90113   -3.08125   10.81308
      H1   -13.86181   -2.83874   10.74112
       H   -14.42408  -10.75432   12.79471
       O   -14.74384  -10.32839   12.00644
      H1   -15.55171  -10.79956   11.79722
       H   -19.81352   -3.98993   18.31463
       O   -18.90595   -3.74541   18.06688
      H1   -18.46947   -3.83827   18.92938
       H   -11.99081  -16.12136   10.85027
       O   -12.53004  -16.47986   11.60557
      H1   -12.15975  -16.07032   12.38196
       H   -15.43552  -13.81769   13.23378
       O   -14.89519  -13.41837   13.89590
      H1   -14.78639  -14.09897   14.61106
       H    -9.63826   -7.34998    9.87880
       O   -10.08316   -6.86738   10.63232
      H1    -9.46364   -6.17619   10.73568
       H   -13.31571   -9.99134   10.96561
       O   -12.62260   -9.82609   10.33342
      H1   -12.59694   -8.85697   10.22100
       H   -11.20494  -11.62278   14.61646
       O   -10.76555  -12.19227   15.23267
      H1   -10.69103  -11.76302   16.07158
       H   -10.18201  -14.62280   13.48202
       O   -10.67796  -15.41636   13.48411
      H1   -10.08769  -16.06712   14.04447
       H    -7.87200   -5.43468   13.82017
       O    -8.49420   -6.13264   14.23202
      H1    -9.07613   -5.58571   14.76457
       H   -15.99822   -8.59461   18.84571
       O   -16.05083   -9.25138   18.10620
      H1   -15.12256   -9.24473   17.72825
       H   -15.61788   -6.53624   16.43376
       O   -16.34848   -7.21042   16.31683
      H1   -16.19789   -7.88521   16.99927
       H   -11.10570  -14.37414    9.56548
       O   -11.08608  -13.50695    9.93835
      H1   -11.78839  -13.46551   10.59168
       H   -18.66019   -5.54028   17.24223
       O   -18.90947   -6.09891   16.49539
      H1   -18.27344   -6.79901   16.56331
       H   -12.61890   -5.09284   13.78900
       O   -12.05197   -4.37786   13.41890
      H1   -11.15040   -4.64710   13.68456
       H   -17.11171  -11.94630    9.22175
       O   -17.94783  -11.51610    9.01032
      H1   -18.21551  -11.14693    9.82388
       H   -14.49116   -2.68885   18.16653
       O   -14.62428   -2.65929   17.20455
      H1   -15.12538   -1.84525   16.99051
       H   -16.47823  -15.13955   16.79171
       O   -16.59744  -16.10958   16.69592
      H1   -17.56042  -16.27940   16.74106
       H    -8.46560   -8.02976   14.08797
       O    -8.62708   -8.94799   14.23615
      H1    -8.22884   -9.35190   13.46178
       H    -9.78679   -8.33949   19.73202
       O    -9.91561   -7.67747   18.98405
      H1    -9.07995   -7.21138   18.78764
       H   -18.38678  -11.78712   19.29874
       O   -18.90245  -12.16478   18.56201
      H1   -18.23812  -12.51916   17.96819
       H   -18.56580  -10.02721   17.26112
       O   -18.64086   -9.51770   16.39978
      H1   -17.74319   -9.60754   15.97991
       H   -10.03466  -10.43182   17.43685
       O    -9.98528  -11.37989   17.69005
      H1    -9.12943  -11.68035   17.31891
       H   -17.37558  -13.89308   11.37819
       O   -16.53800  -14.19796   11.64524
      H1   -16.79152  -15.11402   11.38086
       H   -14.58111   -6.23672   13.43172
       O   -14.11369   -5.77545   14.14626
      H1   -14.60938   -4.98818   14.40598
       H   -13.60247  -15.48108   15.62647
       O   -14.21516  -16.06046   15.12589
      H1   -14.92785  -16.27092   15.76302
       H   -15.95445   -7.31881   12.41527
       O   -15.19723   -7.56497   11.87761
      H1   -14.98381   -8.44965   12.09505

