162
frame 0 | Written by MDAnalysis XYZWriter (release 2.4.3)
       H     1.91840   19.05606   -7.86273
       O     2.12519   18.11559   -8.18236
      H1     2.94423   17.83650   -7.79117
       H     5.26158   16.96310  -13.30493
       O     4.91371   17.63256  -13.91863
      H1     3.96332   17.62746  -13.77042
       H    10.69073   11.35837  -13.49230
       O    10.88361   12.09306  -14.03018
      H1    11.80878   12.37546  -13.65297
       H    12.05520   17.46901  -15.40269
       O    12.14002   16.56281  -15.80594
      H1    11.28969   16.14033  -15.52860
       H     9.19171   17.38706  -12.87713
       O     8.98508   16.47154  -12.96047
      H1     9.79878   16.00392  -12.88133
       H    -1.36178   18.04914  -13.87791
       O    -0.89617   18.88888  -13.96269
      H1     0.02747   18.61248  -14.12831
       H     7.71219   18.17585  -17.68858
       O     7.12720   18.77362  -18.18261
      H1     7.77240   19.50919  -18.42814
       H     1.72247   12.11137   -8.41110
       O     2.70026   12.24282   -8.44997
      H1     2.86338   13.17670   -8.60524
       H     7.40748   16.28531  -11.79900
       O     6.49190   16.09880  -11.65669
      H1     6.53144   16.29796  -10.71038
       H     3.12329   15.75427  -16.27078
       O     3.76913   16.07685  -16.94103
      H1     3.51340   17.03185  -17.17650
       H     3.79301   15.32469   -9.03784
       O     2.96478   14.91608   -9.33740
      H1     2.19966   15.29951   -8.85994
       H     4.08446   12.21206  -12.29233
       O     4.07699   11.86166  -11.42074
      H1     3.16831   11.77026  -11.16060
       H     2.98089   15.15207  -11.29112
       O     3.13666   15.16735  -12.28053
      H1     2.38096   14.95515  -12.79213
       H     5.39097   15.35508  -16.57471
       O     6.30968   15.18178  -16.40392
      H1     6.40300   14.83584  -15.51232
       H    -1.30615   18.56027  -16.60483
       O    -1.89742   18.02582  -17.15252
      H1    -1.48338   17.13611  -16.91621
       H    -1.09235   12.05503  -15.42561
       O    -1.25470   12.91393  -14.93604
      H1    -1.36264   13.66473  -15.48622
       H    10.16841   12.56285   -8.81210
       O     9.73629   13.45686   -9.15467
      H1     9.79484   13.60544  -10.11724
       H     9.21069   19.31656  -15.00743
       O     9.88408   18.73746  -14.57499
      H1     9.62418   17.79134  -14.70980
       H     9.49376   16.93504   -8.45804
       O     9.35377   16.14260   -7.91640
      H1     9.47918   15.32871   -8.45705
       H     5.79974   16.66180   -8.29220
       O     6.52469   16.66262   -8.94589
      H1     7.33569   16.40966   -8.48838
       H     8.99182   14.86623  -15.20090
       O     9.69270   15.28847  -15.73481
      H1     9.18426   15.80617  -16.40759
       H     0.46400   15.55822   -7.34523
       O     0.68674   15.85360   -8.26588
      H1     1.11891   16.73584   -8.13472
       H     3.21657   18.73327  -11.99237
       O     3.08478   19.29170  -11.26171
      H1     2.32380   18.99138  -10.80350
       H     1.68451   15.07620  -18.76227
       O     2.40301   15.40542  -19.22348
      H1     3.04069   15.92151  -18.69121
       H     8.81743   16.59319  -18.75515
       O     9.04113   16.89364  -17.85870
      H1     9.90691   17.33096  -18.03321
       H     1.77738   17.25001  -13.92549
       O     2.00429   18.10290  -14.21344
      H1     2.39230   17.96659  -15.08692
       H     4.57247   17.67190   -6.19367
       O     4.47319   17.01345   -6.87882
      H1     3.95343   16.30049   -6.40769
       H    -0.24328   11.99189  -12.16706
       O    -1.14228   11.69503  -12.28076
      H1    -1.45560   12.01687  -13.09773
       H     6.50238   18.14147  -10.19680
       O     6.36311   19.00703  -10.51618
      H1     5.38581   19.07002  -10.52374
       H     6.94722   14.17603  -17.73376
       O     7.33393   13.62025  -18.42456
      H1     8.19208   13.34996  -18.03465
       H     8.38616   19.49872   -8.34448
       O     9.27633   19.05506   -8.50927
      H1     9.41675   19.06178   -9.46587
       H    10.13510   13.64146  -18.79340
       O    10.06520   13.34998  -17.84637
      H1    10.06619   14.10484  -17.26056
       H    -0.95405   13.84932  -19.02371
       O    -0.35963   14.30993  -18.37988
      H1    -0.99450   14.86667  -17.84926
       H     1.27479   10.27091  -10.41813
       O     1.46440   11.11787  -10.85130
      H1     1.33400   11.77489  -10.21861
       H     7.99337   12.91632   -8.61171
       O     7.03225   12.67805   -8.68534
      H1     6.69678   13.08395   -9.49298
       H    11.88979   17.37983  -17.28371
       O    11.63863   17.88297  -18.11076
      H1    11.53000   18.79718  -17.75352
       H     2.74126   12.43481  -16.38567
       O     3.19388   12.71166  -15.55436
      H1     4.10615   12.58474  -15.73418
       H    10.06669   13.20146  -12.22684
       O     9.27117   13.59080  -11.79617
      H1     8.76172   12.79981  -11.55450
       H    12.99131   18.45965  -13.94402
       O    12.68092   19.11955  -14.51981
      H1    11.71175   19.11112  -14.38769
       H     1.93477   18.71361  -17.56364
       O     2.66977   18.50223  -16.95849
      H1     3.31792   19.16745  -17.31877
       H     8.80263   10.18656  -14.62569
       O     8.92042    9.91093  -13.65974
      H1     8.36566   10.50804  -13.09266
       H     7.91832   10.27610  -10.96247
       O     7.88925   11.09881  -11.50285
      H1     6.99115   11.50646  -11.47290
       H    -2.47686   15.22447  -16.90246
       O    -1.76289   15.38464  -16.25671
      H1    -2.11307   15.77487  -15.46348
       H     6.52598   11.89286  -17.82481
       O     6.52926   10.97740  -17.43460
      H1     6.34576   10.36570  -18.13416
       H     6.28294   14.51481  -11.43820
       O     6.34926   13.57066  -11.22925
      H1     5.44410   13.27110  -11.33470
       H     0.54344   17.52892  -19.86213
       O     0.57729   18.07437  -19.03756
      H1    -0.30214   18.22289  -18.73730
       H    10.77764   18.79176  -11.31563
       O     9.83499   18.57944  -11.13432
      H1     9.34217   19.39975  -11.32401
       H     2.32377   13.98801  -14.68307
       O     1.53914   14.44316  -14.46282
      H1     0.86325   13.82456  -14.72042
       H     6.20634   10.83646  -14.62643
       O     6.04345   11.53448  -14.02962
      H1     6.63169   12.30823  -14.24744
       H    10.96232   16.70918  -11.82215
       O    11.38639   15.85882  -11.99625
      H1    11.98806   16.06511  -12.72982
       H    -1.73860   15.71411  -13.25520
       O    -2.07781   16.57203  -13.43184
      H1    -2.93175   16.58442  -12.91180
       H     0.51964   12.82225  -17.92511
       O     0.95391   12.05588  -17.47198
      H1     0.88689   11.31692  -18.08016
       H     7.90861   13.83792  -13.35017
       O     7.80197   13.47742  -14.26492
      H1     8.59458   12.95529  -14.49710
       H    -0.69602   16.12282   -9.20029
       O    -1.46057   16.12335   -9.85414
      H1    -1.89547   16.98777   -9.96819

