162
frame 3 | Written by MDAnalysis XYZWriter (release 2.4.3)
       H     6.52326  -18.54622   17.30873
       O     7.47795  -18.47124   17.12877
      H1     7.64982  -17.65862   16.69747
       H    -0.59168  -19.36945   19.11997
       O     0.27083  -19.64240   18.86546
      H1     0.73667  -18.94467   18.41170
       H    -4.77158  -16.20827   15.37689
       O    -4.40737  -16.85629   14.76449
      H1    -4.24871  -16.23237   14.03160
       H     0.02875  -12.49858   11.49598
       O    -0.39268  -12.90224   10.69388
      H1    -0.27976  -12.19147   10.04018
       H     4.65429  -15.28437   19.90628
       O     5.19974  -15.94478   19.44380
      H1     5.68263  -15.41869   18.77686
       H     1.03317   -8.41235   13.16794
       O     1.73198   -8.50613   13.82807
      H1     2.53803   -8.10103   13.48006
       H    -8.20021  -14.28837   16.02461
       O    -7.57863  -15.00378   15.81629
      H1    -7.52720  -15.03288   14.84502
       H    -6.40945  -17.82221   14.55185
       O    -7.12629  -18.02353   13.89878
      H1    -7.86389  -18.47614   14.32573
       H    -1.18821  -16.53878   14.58425
       O    -1.63111  -17.32685   14.96213
      H1    -2.55496  -17.13923   15.02590
       H    -2.58334  -12.96355   18.80007
       O    -3.49524  -12.91050   18.58496
      H1    -3.46627  -12.40836   17.77102
       H    -0.93175   -9.89328   11.78059
       O    -0.25773   -9.13964   11.77922
      H1     0.67586   -9.51998   11.66456
       H    -1.01664  -16.56131   18.46874
       O    -1.79499  -17.17333   18.18532
      H1    -1.77292  -17.41467   17.27166
       H    -0.10180  -13.79627   19.11386
       O    -0.28044  -12.91060   18.86090
      H1     0.36676  -12.73548   18.14568
       H    -3.15636  -10.18232   12.76997
       O    -2.60642  -10.78296   12.22767
      H1    -3.12296  -10.83268   11.47499
       H    -2.18071  -12.18254   13.17860
       O    -2.10533  -12.99599   13.69984
      H1    -2.75157  -13.58452   13.32523
       H    -4.42609  -13.13352   16.06602
       O    -4.02399  -12.29629   15.79463
      H1    -3.34088  -12.55575   15.12947
       H    -2.77566   -9.18498   16.49930
       O    -2.93142   -9.45788   17.41085
      H1    -2.11481   -9.30772   17.93960
       H     0.87827  -11.01264   15.95117
       O     0.13139  -10.92056   15.31562
      H1    -0.42322  -11.69176   15.49007
       H    -5.36614   -8.73519   18.91361
       O    -6.34009   -9.04804   18.86320
      H1    -6.22433   -9.79773   18.24957
       H    -4.43898  -14.67452   11.97910
       O    -4.60582  -14.91964   12.91221
      H1    -5.56925  -15.23951   12.81058
       H     7.03256  -11.87858   19.23566
       O     6.62947  -11.79341   18.39510
      H1     7.43112  -11.52578   17.87839
       H    -1.67581   -8.25363   14.32690
       O    -1.19929   -8.37874   15.18195
      H1    -0.67682   -9.15070   14.97573
       H     4.76506   -9.74818   14.69044
       O     5.02829   -9.48980   13.80193
      H1     4.67748  -10.14945   13.15240
       H     7.71921  -16.49775   15.35583
       O     8.15415  -16.08687   16.12886
      H1     7.41554  -15.57680   16.45317
       H     0.65060  -11.58412   13.81522
       O     0.93101  -12.07645   13.05902
      H1     1.22973  -12.88513   13.52864
       H     0.96230  -15.71088   19.94984
       O     0.42648  -15.57373   19.13112
      H1     0.98886  -15.62399   18.34378
       H    -5.19564  -12.28795   12.69169
       O    -5.41803  -11.53872   12.14401
      H1    -5.81659  -10.88185   12.72181
       H     3.31677   -9.99813   16.30592
       O     4.15732  -10.44150   16.10000
      H1     4.47887  -10.75535   16.97900
       H     2.24790  -17.81878   11.87911
       O     2.75590  -17.11789   11.47837
      H1     3.40792  -17.64667   10.94041
       H     5.82290   -8.92570   19.73096
       O     5.78614   -9.23852   18.81150
      H1     6.09176  -10.15163   18.78199
       H     4.87884  -17.36561   18.13097
       O     4.74769  -18.22003   17.64183
      H1     4.58886  -18.88187   18.29499
       H    -1.11584  -14.48257   13.45267
       O    -0.86048  -15.25510   12.97263
      H1    -1.18958  -15.22643   12.06983
       H    -5.56255  -11.51737   15.40054
       O    -6.33783  -11.14308   14.98621
      H1    -6.99562  -11.07463   15.67613
       H     4.56727   -7.89771   18.15395
       O     3.86202   -7.27685   18.01521
      H1     4.26967   -6.45949   17.60782
       H     2.45538  -15.06757   13.72033
       O     1.57419  -14.75087   13.94867
      H1     0.87071  -15.20394   13.37610
       H    -4.64287   -9.70772   14.86612
       O    -3.89458   -9.12857   14.55046
      H1    -4.12094   -8.28038   14.99888
       H     1.91721  -16.10625   16.51854
       O     1.73663  -15.13077   16.55301
      H1     1.51664  -14.89224   15.59188
       H    -0.34735   -7.42311   18.01297
       O    -0.49298   -8.16918   18.65842
      H1     0.38012   -8.53417   18.78184
       H     4.63099  -12.86154   15.09833
       O     3.92500  -13.44562   15.39090
      H1     3.39012  -12.91384   16.01010
       H    -1.30493   -5.50566   16.23153
       O    -0.52604   -5.94688   16.52497
      H1    -0.48899   -6.61181   15.83446
       H     6.41691  -13.48367   17.83567
       O     6.28744  -14.38463   17.46729
      H1     5.56902  -14.24884   16.80189
       H    -4.92941  -14.70499   17.68099
       O    -5.18384  -14.53443   16.75027
      H1    -6.14033  -14.66818   16.50814
       H     5.14137  -17.19144   15.93770
       O     5.40758  -16.46767   15.34909
      H1     4.69827  -16.15613   14.76742
       H    -3.35710   -7.96946   18.51848
       O    -3.97202   -7.23020   18.82955
      H1    -3.34436   -6.66288   19.32728
       H    -7.27876  -18.57749   19.26965
       O    -7.95799  -19.02733   19.76255
      H1    -8.78483  -18.67817   19.44732
       H    -2.57305  -18.33378   13.29851
       O    -2.95898  -18.94708   12.69144
      H1    -2.66974  -19.84576   12.96729
       H     2.75113  -17.81792   17.80262
       O     1.86578  -17.84424   17.35220
      H1     1.89562  -18.61666   16.81747
       H     1.26275  -19.70486   14.61410
       O     0.90040  -19.36070   15.45420
      H1     0.21723  -18.75423   15.15045
       H     1.63128  -13.11749   10.81017
       O     2.56671  -13.21582   10.54557
      H1     2.60410  -12.73776    9.67710
       H    -5.45640   -6.71762   16.36613
       O    -4.60406   -6.22194   16.35815
      H1    -4.23718   -6.28804   17.21540
       H    -7.99560  -12.25733   17.46724
       O    -7.17046  -11.69810   17.67241
      H1    -6.52737  -12.27768   18.11005
       H     4.61251  -14.92618   12.54969
       O     4.09729  -15.58742   13.05946
      H1     3.45859  -15.94447   12.45546
       H     1.84113   -8.81752   15.50319
       O     2.14234   -8.83959   16.47178
      H1     2.71852   -8.11121   16.53674
       H     2.02556  -13.45902   17.10283
       O     2.07797  -12.44506   17.21389
      H1     2.20656  -12.32749   18.20015

