162
frame 2 | Written by MDAnalysis XYZWriter (release 2.4.3)
       H    -7.68116    8.20047  -17.92304
       O    -8.66002    8.43468  -17.81861
      H1    -9.07162    8.01400  -17.03179
       H    -7.07264    4.50861  -18.50858
       O    -6.31353    4.49940  -17.92965
      H1    -5.56764    4.09701  -18.38570
       H   -11.87858   11.08190  -14.29819
       O   -12.83951   10.78656  -14.44921
      H1   -13.27928   11.44879  -13.90583
       H   -17.95581    5.68333  -20.13040
       O   -17.29226    5.79599  -19.42559
      H1   -17.01326    6.68766  -19.53890
       H    -5.58477   10.01715  -13.55861
       O    -5.53416   10.65988  -12.88387
      H1    -6.24669   10.53914  -12.27731
       H    -5.91793   14.02785  -15.31567
       O    -5.33893   13.93044  -16.04717
      H1    -5.15575   14.87334  -16.30560
       H   -11.83079    7.90742  -18.51433
       O   -11.08123    7.75508  -19.12104
      H1   -10.31115    7.83122  -18.53321
       H   -11.40916   12.60283  -11.07628
       O   -11.66629   11.73285  -10.78334
      H1   -12.64482   11.68851  -10.77554
       H   -13.97383   13.27563  -12.87087
       O   -13.96050   12.39025  -12.57969
      H1   -14.84729   11.99117  -12.79273
       H   -11.53713    6.01250  -19.07919
       O   -11.38412    5.08378  -19.23632
      H1   -11.81344    4.62918  -18.48586
       H    -7.78562   11.55144  -16.50315
       O    -8.22480   10.78928  -16.06576
      H1    -8.53614   10.28919  -16.78656
       H   -13.33329    7.28580  -16.68369
       O   -13.44584    7.96503  -17.35178
      H1   -13.26491    8.78209  -16.90476
       H    -6.01058    6.59688  -17.57363
       O    -6.09256    7.52982  -17.68061
      H1    -5.69678    7.93274  -16.90823
       H   -14.25300    9.09195  -11.29320
       O   -13.79423    8.26685  -11.60720
      H1   -12.90000    8.51645  -11.73009
       H    -6.33248    4.93629  -15.24465
       O    -5.81142    5.62775  -14.84931
      H1    -4.86120    5.45334  -15.00767
       H   -10.98054    9.62204  -12.99979
       O   -11.21089    9.30364  -12.14551
      H1   -11.40128   10.12000  -11.61098
       H   -10.88527   15.44715  -13.77992
       O   -11.02506   14.50751  -13.98728
      H1   -10.50227   14.43743  -14.81485
       H   -11.51193    6.26288  -13.24922
       O   -10.87468    5.67293  -12.82808
      H1   -10.19671    6.17541  -12.34982
       H   -14.70662   10.88511  -19.05704
       O   -15.61559   10.62961  -19.30795
      H1   -15.64358    9.67081  -19.20843
       H   -17.03858   10.49085  -18.00072
       O   -17.87163   10.52451  -17.44057
      H1   -17.81303    9.79161  -16.80409
       H   -17.56393    6.43550  -12.94798
       O   -16.67479    6.12301  -13.20720
      H1   -16.16939    6.91528  -13.43235
       H   -12.89905   14.45190  -14.47653
       O   -13.82778   14.77550  -14.29371
      H1   -14.23429   14.79532  -15.16409
       H    -7.23199    6.86632  -13.96140
       O    -7.98691    7.55547  -13.93160
      H1    -8.38085    7.43183  -13.05955
       H    -4.57741    8.54768  -14.75053
       O    -4.96742    9.09946  -15.44784
      H1    -5.86443    8.73725  -15.49213
       H   -10.64148   11.17659  -16.58253
       O   -11.24199   10.52837  -17.03837
      H1   -10.88188    9.60738  -17.02911
       H   -12.52411    6.65784  -10.43895
       O   -12.69356    6.24956   -9.56254
      H1   -11.80699    5.97044   -9.23520
       H   -12.02237   16.39009  -17.77676
       O   -11.24984   16.52439  -17.16602
      H1   -10.91974   15.63993  -16.98375
       H   -12.90771   13.54210  -19.10764
       O   -12.53965   14.16082  -18.42385
      H1   -13.09708   14.95654  -18.56347
       H   -18.10914    8.39290  -15.01436
       O   -17.46390    8.11158  -15.72172
      H1   -16.69546    8.00233  -15.22300
       H    -9.91698    4.57188  -14.57074
       O    -9.81903    3.95621  -15.30937
      H1    -9.73109    3.05537  -14.84855
       H    -9.10808   15.29907  -15.83159
       O    -9.42178   14.41134  -16.05433
      H1    -8.84583   13.82302  -15.46058
       H   -12.25971   11.14441  -18.35942
       O   -12.80366   11.34867  -19.12811
      H1   -12.22615   11.28274  -19.93805
       H    -7.63293   13.15000  -18.22515
       O    -6.84762   12.60358  -17.91376
      H1    -6.34835   13.09960  -17.21477
       H   -10.11813   16.37952  -18.79638
       O    -9.93558   16.39850  -19.77977
      H1   -10.20654   17.32237  -19.96147
       H    -8.65218    5.33194  -19.81275
       O    -8.53223    4.46354  -19.52711
      H1    -9.28371    4.25256  -18.93581
       H   -15.91034   11.08271  -15.23020
       O   -16.41723   10.83996  -14.42732
      H1   -17.13140   10.22909  -14.66909
       H   -15.80928    5.02980  -19.61559
       O   -14.93808    4.61239  -19.31052
      H1   -14.30005    5.06267  -19.78942
       H   -15.23739    4.80880  -13.26854
       O   -14.36332    4.32585  -13.34145
      H1   -14.37019    3.76274  -12.55110
       H    -6.99213   12.50863  -13.85525
       O    -7.48929   13.33311  -14.01725
      H1    -7.06661   14.04839  -13.58068
       H    -6.98903    3.54187  -16.51780
       O    -7.23002    3.51663  -15.58733
      H1    -8.22732    3.63080  -15.53140
       H    -9.55289    7.79881  -14.86470
       O   -10.10934    7.95684  -15.67244
      H1   -10.92747    7.53483  -15.30051
       H   -14.03975    4.66843  -17.74080
       O   -13.29696    4.67452  -17.09815
      H1   -13.62051    4.00564  -16.44199
       H    -8.29093    6.09332  -10.76715
       O    -8.82428    6.74185  -11.30959
      H1    -8.63702    7.54179  -10.92408
       H   -13.90016   14.02587  -17.34834
       O   -14.66473   14.08063  -16.81107
      H1   -15.43007   14.39497  -17.36965
       H   -14.21713   12.03376  -16.64558
       O   -14.63441   11.20070  -16.39231
      H1   -13.90881   10.86152  -15.88187
       H   -14.89409    7.38756  -19.63837
       O   -15.49730    7.83838  -19.01731
      H1   -15.02941    7.76808  -18.17972
       H   -12.58939    5.75765  -15.61793
       O   -12.54933    6.56018  -15.02815
      H1   -13.47977    6.65354  -14.67927
       H   -10.71747   14.13864  -12.21347
       O   -10.57507   14.22986  -11.25551
      H1   -10.84636   15.13299  -11.02600
       H   -16.64334    5.06209  -16.25533
       O   -15.99086    4.87158  -15.53155
      H1   -16.50321    5.24132  -14.79390
       H   -14.38771    8.23695  -13.12686
       O   -15.06389    8.34539  -13.83101
      H1   -15.37562    9.26415  -13.79639
       H    -9.37101   11.09942  -14.67970
       O   -10.12998   11.30960  -14.10911
      H1    -9.75291   11.38109  -13.22243
       H    -9.80007   13.63218  -19.52406
       O    -9.35427   12.81545  -19.39982
      H1    -9.82437   12.19550  -18.89075
       H    -8.27844   12.03685  -11.13476
       O    -7.99039   11.16685  -11.43527
      H1    -8.19146   10.58691  -10.65978
       H    -4.90936   13.82534  -19.96998
       O    -4.41681   13.45588  -19.24277
      H1    -5.04378   12.87630  -18.81098

