162
frame 1 | Written by MDAnalysis XYZWriter (release 2.4.3)
       H     5.52984   -9.65061    8.76683
       O     5.62701   -9.86007    9.72482
      H1     6.57518   -9.79997    9.97514
       H     7.51440   -9.82209   11.73283
       O     7.92917   -9.58476   10.91357
      H1     8.52575   -8.84894   11.23455
       H     3.43254   -3.13363   12.17027
       O     3.54314   -3.94179   12.65775
      H1     2.63719   -4.05803   12.90261
       H     7.41554   -2.35038   11.69165
       O     7.05106   -1.81283   10.94070
      H1     6.53382   -2.50486   10.49962
       H     0.39232  -13.42391    5.61078
       O     0.17383  -12.49927    5.87821
      H1     0.98315  -12.18759    6.26447
       H    -0.21854   -6.13873    6.04954
       O     0.08240   -7.06448    6.17847
      H1    -0.63288   -7.56537    6.57677
       H     0.32616  -12.32039   11.33431
       O     0.08798  -12.93277   10.60934
      H1    -0.42893  -12.32965   10.14093
       H     1.70756   -6.66613    3.29465
       O     1.45184   -7.58334    3.41931
      H1     0.59859   -7.63873    3.89557
       H     5.12472   -4.33869    8.80402
       O     5.83196   -4.51498    9.42113
      H1     5.41067   -5.12892   10.04547
       H     3.32540   -3.56662    7.80849
       O     4.00560   -4.16870    7.54194
      H1     3.63751   -5.08276    7.70966
       H     1.05255   -7.69493   14.02357
       O     1.55069   -7.19431   14.70367
      H1     2.42553   -7.16734   14.31686
       H    -1.22986   -4.62969    4.74001
       O    -0.76856   -4.44056    5.61099
      H1    -1.46994   -4.14427    6.19318
       H     3.88166   -4.27796    5.57334
       O     4.07806   -4.13020    4.63203
      H1     3.22003   -4.30876    4.11827
       H    -1.33946   -9.05100    9.99304
       O    -0.78289   -8.36837   10.32084
      H1     0.02333   -8.82656   10.11820
       H     4.99464   -3.98110   16.17567
       O     5.27040   -3.57997   15.32879
      H1     4.55389   -3.65902   14.68002
       H     0.48234   -2.51141    8.69546
       O    -0.27971   -2.88442    9.25123
      H1    -1.07070   -2.61643    8.80952
       H    -3.56961   -5.93131    8.05496
       O    -3.46447   -6.86350    8.45773
      H1    -2.84903   -7.38391    7.91171
       H     4.38569  -11.77895    8.43747
       O     3.94608  -12.59237    8.21134
      H1     4.63026  -13.21394    7.78470
       H    -3.33983   -9.88040   11.38436
       O    -2.86448  -10.45883   10.79174
      H1    -3.60172  -10.74786   10.19551
       H     7.19256   -5.41270    8.37753
       O     8.10956   -5.66250    8.10416
      H1     7.96489   -6.03614    7.22169
       H     2.74922   -1.03444   10.25275
       O     3.23218   -0.83549    9.41714
      H1     4.08840   -0.80415    9.84755
       H    -0.46196   -3.19872   13.96572
       O    -1.16625   -2.60227   14.26304
      H1    -1.71961   -3.09175   14.80793
       H     4.70998   -9.06670    6.58041
       O     5.13135   -9.80917    7.06603
      H1     6.01185   -9.79926    6.71658
       H     7.01860   -6.27662   13.66143
       O     7.20548   -6.29591   12.71355
      H1     8.12423   -6.70427   12.70666
       H    -3.59510   -8.37259   13.37381
       O    -4.18951   -8.51576   12.58815
      H1    -3.85104   -7.73303   12.05441
       H    -0.78946  -10.26381   14.67634
       O    -0.87151  -11.21616   14.58780
      H1    -1.57679  -11.44449   14.01773
       H    -2.81568   -6.34136   10.69335
       O    -2.63270   -6.14127   11.65186
      H1    -2.39552   -5.23719   11.72408
       H    -0.36095   -8.21625   12.01255
       O    -0.18820   -8.44192   12.92565
      H1     0.03129   -9.40817   12.89276
       H     3.49094  -11.23107   14.63505
       O     4.20287  -11.03984   13.99285
      H1     3.97866  -11.34163   13.12140
       H     0.23892  -10.75453    8.28823
       O    -0.58722  -11.22616    8.35859
      H1    -0.34808  -11.88341    7.69435
       H     0.49545  -11.75341   13.60847
       O     1.36901  -11.73022   13.12285
      H1     1.58286  -12.69860   13.21830
       H    -2.74359   -9.23177    6.64648
       O    -1.87719   -8.84298    6.99283
      H1    -1.59080   -9.66633    7.42991
       H     3.62709   -7.30274   10.15331
       O     2.72771   -7.54583    9.72871
      H1     2.12886   -7.10827   10.35225
       H    -0.31539   -0.94737   11.95542
       O     0.37657   -1.18296   11.33815
      H1     0.11794   -1.56529   10.53014
       H     7.53147   -4.62094   12.72702
       O     7.97802   -3.74846   12.68411
      H1     8.31170   -3.50216   13.53995
       H     2.74222   -7.96506    6.08146
       O     3.06684   -8.56894    5.42016
      H1     2.62630   -8.36570    4.57051
       H     4.58011   -5.24882   11.93858
       O     4.87300   -6.07228   11.50053
      H1     5.77614   -6.28796   11.83570
       H     2.25747  -10.65751   10.93649
       O     1.98498  -10.21821   10.15273
      H1     2.31837   -9.32627   10.30107
       H     4.38498   -7.43991   12.64739
       O     3.87965   -7.80130   13.39627
      H1     4.21761   -8.68363   13.59538
       H    -2.68664   -2.40494   10.59296
       O    -3.30626   -2.86497    9.99672
      H1    -4.17509   -2.65176   10.36410
       H     4.54033  -11.26459   10.61900
       O     4.22704  -11.83685   11.29222
      H1     3.60341  -12.45167   10.93168
       H     2.11711   -2.17801    6.49427
       O     2.07745   -2.36690    7.47675
      H1     2.68530   -1.74864    7.96662
       H    -3.07039   -7.47940   14.78005
       O    -2.49987   -8.28523   14.88190
      H1    -1.72756   -7.95642   14.40026
       H     2.71303  -11.07348    7.50582
       O     2.00094  -10.73948    6.95674
      H1     2.39709  -10.01563    6.42077
       H     0.34901   -4.58782   12.45436
       O     0.67530   -4.53075   13.34950
      H1     0.90914   -5.43466   13.59873
       H    -3.63501   -4.54428    6.43037
       O    -3.02679   -4.42575    7.19083
      H1    -3.44728   -3.60912    7.63118
       H    -1.28692   -5.32731   16.61897
       O    -0.61839   -5.97733   16.99420
      H1     0.17236   -5.92287   16.44683
       H    -0.12273   -5.71655   10.21391
       O     0.60829   -5.17778   10.42015
      H1     0.38664   -4.25111   10.06893
       H     7.39252  -10.39944   13.89718
       O     6.75385  -10.41180   13.18576
      H1     5.88333  -10.64157   13.58076
       H     1.82354   -6.65193    6.91344
       O     2.78035   -6.57050    7.21699
      H1     2.69717   -6.94853    8.13592
       H     5.86086   -6.34324   15.66218
       O     6.58022   -5.72653   15.47458
      H1     6.15286   -4.85197   15.33745
       H     1.69239  -13.65196   10.16418
       O     2.62312  -13.92333   10.22663
      H1     3.11465  -13.56282    9.42970
       H     0.87935   -2.81057   15.36024
       O     1.68642   -3.04364   15.86660
      H1     2.24654   -2.27611   15.90039
       H     1.48306   -8.53251   16.09609
       O     1.04572   -8.90838   16.81074
      H1     1.31580   -8.49047   17.60761

