162
frame 6 | Written by MDAnalysis XYZWriter (release 2.4.3)
       H    -8.26508   -8.39872  -17.38598
       O    -8.61112   -8.86979  -18.16082
      H1    -8.05808   -8.63562  -18.89661
       H   -13.55502  -14.97719  -17.72467
       O   -14.08332  -14.15058  -17.86100
      H1   -14.00330  -13.71345  -17.01395
       H   -17.85259   -2.88230  -12.18687
       O   -17.69136   -2.20719  -12.88908
      H1   -17.35652   -2.62533  -13.68529
       H   -18.14806  -13.43422  -10.78691
       O   -17.31689  -13.17495  -11.24633
      H1   -17.01490  -12.32236  -10.82802
       H   -18.32573    0.20847  -14.70292
       O   -18.16660    0.85232  -14.00659
      H1   -17.35699    1.40323  -14.26385
       H    -9.35682   -4.74452  -16.70148
       O    -9.51757   -5.39804  -17.38860
      H1    -9.56294   -5.05704  -18.28590
       H   -13.72768   -0.01474  -15.94831
       O   -14.63603    0.06781  -16.22361
      H1   -14.86956    0.90538  -15.77314
       H   -16.35529   -5.88609  -13.88635
       O   -16.96555   -5.18773  -14.19215
      H1   -17.81168   -5.57267  -14.31372
       H   -10.58234  -10.79474  -13.97459
       O   -11.10422  -11.25856  -14.58063
      H1   -10.55550  -11.96652  -14.97273
       H   -15.99328   -2.52513  -12.54101
       O   -15.10946   -2.85036  -12.26860
      H1   -15.15726   -3.85198  -12.16827
       H   -11.49177   -5.18480  -11.41166
       O   -12.03003   -5.29994  -10.64170
      H1   -11.97347   -4.45431  -10.16564
       H   -18.79338   -0.68027  -16.56345
       O   -19.19627   -1.37185  -16.05543
      H1   -18.67895   -2.18282  -16.25722
       H   -14.15566  -10.65707  -13.09752
       O   -13.63617   -9.83664  -13.03966
      H1   -14.19787   -9.09781  -13.33915
       H   -19.35518   -3.95731  -11.03516
       O   -18.61960   -3.52876  -10.61320
      H1   -18.19063   -4.22198  -10.04660
       H   -17.92945    1.75168  -16.88967
       O   -18.28818    0.87412  -17.13901
      H1   -18.13471    0.78650  -18.11666
       H   -18.32476  -13.96602  -16.41618
       O   -19.11769  -14.38750  -16.81775
      H1   -18.90314  -15.28566  -16.52305
       H   -14.12637  -10.88751  -15.44974
       O   -14.63316  -11.65479  -15.73522
      H1   -15.50759  -11.46158  -16.08175
       H   -16.16187   -7.37027  -16.92205
       O   -17.08579   -7.65213  -16.79495
      H1   -17.21622   -8.42680  -17.40292
       H   -15.88850   -5.12545   -9.15760
       O   -16.37202   -4.29266   -9.10440
      H1   -15.72375   -3.59992   -9.23460
       H   -11.37254   -8.46995  -19.14478
       O   -10.69656   -7.82188  -19.33753
      H1    -9.91257   -8.19951  -18.83294
       H   -16.05133  -10.06474  -18.11958
       O   -15.11861   -9.78472  -17.94249
      H1   -14.94216  -10.09032  -17.02489
       H   -16.44710  -11.12720   -8.86044
       O   -16.56927  -11.02915   -9.84918
      H1   -15.93850  -10.33401  -10.02332
       H   -14.10315  -12.95831  -14.81776
       O   -14.06390  -13.60443  -14.06238
      H1   -13.19043  -13.49111  -13.65235
       H   -13.69559   -9.42060   -9.41189
       O   -14.22429   -8.63883   -9.44470
      H1   -13.63243   -7.92179   -9.19432
       H   -13.28787   -2.01353  -13.08426
       O   -12.39278   -2.17145  -13.40936
      H1   -12.09901   -1.42783  -13.94482
       H   -11.49306   -7.51473  -16.46283
       O   -11.60679   -6.63108  -16.14927
      H1   -10.89327   -6.07512  -16.54408
       H   -16.20383   -0.54375  -19.14690
       O   -15.26842   -0.62786  -18.96364
      H1   -15.32015   -0.53578  -18.02644
       H   -11.31934   -8.20870  -10.21102
       O   -11.30220   -8.30533  -11.14789
      H1   -11.88863   -7.55617  -11.46705
       H   -13.26113  -10.35222  -18.65036
       O   -12.36330  -10.03510  -18.75777
      H1   -11.76239  -10.77271  -18.95772
       H   -17.91685  -11.75725  -17.53348
       O   -17.50359  -11.70467  -16.64672
      H1   -17.93288  -10.96271  -16.15753
       H   -15.08159   -7.42637  -14.77822
       O   -15.45566   -7.79394  -14.02334
      H1   -16.07484   -8.44598  -14.41989
       H    -8.62925  -10.04441  -12.29412
       O    -9.39740   -9.75903  -12.79253
      H1   -10.05666   -9.33710  -12.23590
       H   -11.53005   -5.00864  -13.27712
       O   -10.62994   -4.96869  -12.85394
      H1   -10.42622   -5.90276  -12.68534
       H   -16.32758   -4.82312  -18.34135
       O   -15.52989   -4.21500  -18.30401
      H1   -15.28129   -3.93009  -19.17190
       H   -10.23139   -3.05948  -15.86372
       O    -9.63859   -3.58489  -15.36771
      H1   -10.03054   -3.70120  -14.49641
       H   -19.63243   -7.54707  -13.47961
       O   -19.08411   -6.74858  -13.16700
      H1   -19.04499   -6.84376  -12.22055
       H   -16.23898  -14.10112  -17.64965
       O   -16.82678  -14.85382  -17.90778
      H1   -17.73639  -14.73699  -17.53271
       H   -18.74829   -6.35826   -8.65172
       O   -18.88813   -6.31765   -9.59464
      H1   -17.96719   -6.56506   -9.82931
       H   -14.43852   -5.43429  -16.94290
       O   -14.36549   -6.34158  -16.52719
      H1   -13.38422   -6.55220  -16.39672
       H   -11.12822  -12.60771  -12.93176
       O   -11.53353  -12.97100  -12.16051
      H1   -11.34262  -13.91238  -12.05793
       H   -12.21871   -8.25756  -13.39975
       O   -12.33104   -7.29636  -13.48956
      H1   -12.03576   -7.18044  -14.43835
       H   -16.66032   -3.89461  -15.60672
       O   -16.66125   -2.97841  -15.96706
      H1   -16.14887   -3.13140  -16.78286
       H   -15.80253  -15.90799  -13.11654
       O   -15.67419  -15.75828  -14.03722
      H1   -15.03152  -15.02632  -14.04990
       H   -18.43876   -5.09383  -17.90030
       O   -17.83224   -5.45286  -18.50112
      H1   -17.64376   -6.32901  -18.20353
       H   -15.95084   -7.73681  -10.21857
       O   -16.34945   -6.82626  -10.13700
      H1   -16.00210   -6.43494  -10.92784
       H   -19.00476  -12.00702  -13.59102
       O   -18.62372  -11.39764  -12.93390
      H1   -18.03330  -12.03103  -12.41005
       H   -14.83524   -3.11538  -15.97197
       O   -13.91986   -3.36328  -15.67678
      H1   -13.82686   -3.02527  -14.76629
       H   -11.11012   -1.75454  -17.97777
       O   -11.26354   -2.06965  -17.07969
      H1   -12.07309   -2.56386  -17.06511
       H   -18.61140   -8.86282  -19.14524
       O   -17.65135   -9.19835  -19.19650
      H1   -17.31189   -9.02708  -20.06005
       H   -14.06982   -8.21658  -19.05790
       O   -13.92634   -7.62292  -19.80617
      H1   -13.65149   -6.76865  -19.39784
       H   -17.77875  -10.13422  -14.13920
       O   -17.41423   -9.64493  -14.93303
      H1   -17.76321   -8.76331  -14.99765
       H   -18.14978  -11.11279  -19.45719
       O   -18.53692  -11.99517  -19.24446
      H1   -17.92345  -12.63080  -19.67688
       H   -12.39093   -9.55920  -16.99262
       O   -12.42463   -9.45500  -16.00590
      H1   -11.94265  -10.29799  -15.69364
       H   -14.30173   -6.10510  -12.78077
       O   -14.47392   -5.51263  -12.07678
      H1   -13.65825   -5.37359  -11.56805

