162
frame 6 | Written by MDAnalysis XYZWriter (release 2.4.3)
       H    -7.62051    9.50530  -17.92135
       O    -8.23702   10.20751  -18.21931
      H1    -8.84330   10.45528  -17.45963
       H    -6.33024    5.76375  -18.83643
       O    -6.24382    6.09436  -17.89072
      H1    -5.59930    5.54483  -17.44976
       H   -11.03873    9.14874  -11.54664
       O   -10.29297    8.97508  -12.16645
      H1   -10.51524    8.04880  -12.36504
       H    -8.02429   11.55576  -13.26719
       O    -7.94740   12.45157  -13.60179
      H1    -8.41263   12.91620  -12.91485
       H    -3.97080   14.33227  -11.03071
       O    -4.57063   13.60440  -11.01412
      H1    -4.36242   12.96366  -11.66655
       H   -11.24618    7.66827  -17.09598
       O   -10.36483    7.78879  -16.74565
      H1    -9.77004    7.86161  -17.50480
       H   -13.95320   11.63717  -12.37678
       O   -13.87975   11.39453  -11.44163
      H1   -14.63740   11.87045  -10.94339
       H    -9.70664   10.56547   -9.00769
       O    -9.54636    9.60978   -8.91705
      H1    -9.70161    9.31917   -7.98187
       H    -3.51401    6.33356  -10.49524
       O    -4.39357    6.00248  -10.83354
      H1    -4.62406    6.40436  -11.65429
       H   -10.49242    5.94667  -19.28779
       O   -11.27577    5.43796  -19.08910
      H1   -11.82235    6.02501  -18.52574
       H    -6.26676   11.99250  -16.63127
       O    -5.84842   11.34585  -16.04527
      H1    -6.40586   10.55682  -16.18794
       H   -13.08751    7.28746  -16.79749
       O   -13.14321    7.63658  -17.70728
      H1   -13.39611    8.55680  -17.63784
       H    -5.56699    7.94054  -17.97079
       O    -5.89051    8.86151  -18.06277
      H1    -5.18258    9.31130  -17.61900
       H    -7.05765    7.79357  -15.34691
       O    -6.45870    7.20933  -14.83710
      H1    -5.85860    6.67035  -15.33364
       H    -1.70637    7.65323  -16.88507
       O    -2.70330    7.68310  -16.94571
      H1    -2.87830    8.58096  -17.13917
       H   -11.27332    9.93850   -9.51600
       O   -12.08542    9.63502   -9.92047
      H1   -12.38560   10.45789  -10.42761
       H    -1.32881    9.66866  -13.87934
       O    -0.94589   10.12476  -14.69060
      H1    -1.63187   10.57224  -15.14749
       H   -11.95364   14.83367  -14.48467
       O   -11.72193   13.99981  -14.09256
      H1   -11.12614   13.36858  -14.59683
       H   -10.59780    6.27437  -12.57506
       O   -10.36743    6.55687  -13.47126
      H1    -9.46855    6.18504  -13.62355
       H   -12.26105    5.62486  -10.37185
       O   -12.03215    5.40126  -11.29175
      H1   -12.89982    5.28301  -11.73962
       H    -6.30966   10.49188   -8.57688
       O    -5.72742   10.83551   -7.84201
      H1    -4.94801   11.31285   -8.28055
       H   -12.90466   12.93905  -14.04021
       O   -13.76376   12.48371  -13.92338
      H1   -14.18173   12.40809  -14.78066
       H    -7.35714   10.12075  -11.86930
       O    -7.84143    9.92802  -12.64936
      H1    -8.72056    9.48720  -12.38874
       H   -11.05971    3.59624  -11.73541
       O   -10.29889    3.09538  -12.08002
      H1    -9.52077    3.69635  -12.09221
       H    -4.85724   10.60940  -12.84119
       O    -4.45697   11.41118  -13.14988
      H1    -4.96387   11.61428  -13.93127
       H   -11.77175    9.58902  -13.81192
       O   -11.83974    9.75879  -14.77785
      H1   -11.66683    8.90538  -15.23704
       H   -12.31705    7.84996   -9.44476
       O   -12.40134    7.08185   -8.86701
      H1   -11.51592    6.79890   -8.64749
       H   -12.26107   13.70432  -18.09470
       O   -13.06378   14.20929  -17.99574
      H1   -13.51511   14.10758  -18.80798
       H   -10.51687    4.19826  -17.88329
       O   -10.07297    3.41782  -17.47934
      H1   -10.38297    3.14488  -16.57203
       H    -7.36576   16.27314  -16.19377
       O    -7.70489   15.30832  -16.16873
      H1    -7.26850   14.80857  -15.41713
       H   -10.85447   12.38039  -16.92697
       O   -11.09923   12.48234  -17.83758
      H1   -11.70139   11.74698  -18.05940
       H    -7.63609   13.32724  -18.37250
       O    -6.72393   13.62457  -18.07481
      H1    -6.91555   14.25155  -17.33411
       H   -15.59094   10.68654  -15.58408
       O   -15.84940    9.92925  -15.09514
      H1   -16.66016   10.12548  -14.60159
       H    -9.46746   12.80949   -9.86968
       O    -9.61449   12.37325   -9.03194
      H1   -10.06172   13.08634   -8.54853
       H    -9.50021    2.22853  -14.85575
       O   -10.46117    2.41382  -14.86119
      H1   -10.50330    2.95549  -14.04486
       H    -3.52296    6.09608  -16.31815
       O    -3.99387    5.32487  -15.89743
      H1    -3.55140    5.31504  -14.97911
       H    -6.45698   13.53788  -13.95035
       O    -5.92823   14.31891  -14.19623
      H1    -6.06596   14.98288  -13.50658
       H    -7.22500    4.85291  -16.84581
       O    -7.41642    4.16145  -16.18281
      H1    -8.27899    3.88157  -16.34225
       H    -8.69944    9.53306  -14.33395
       O    -8.62119    9.20530  -15.21866
      H1    -9.37218    8.62491  -15.18072
       H    -5.14868    7.33423   -9.61679
       O    -5.64325    7.95438   -9.00982
      H1    -4.87925    8.45508   -8.67052
       H    -1.67016    9.80153  -19.14915
       O    -2.50769   10.30794  -19.28622
      H1    -3.15942    9.69181  -19.72675
       H    -6.19546    9.35772   -9.67443
       O    -6.81803   10.04206  -10.04704
      H1    -7.65537    9.74210   -9.66268
       H   -14.19393   12.95374  -17.09260
       O   -15.00525   12.52483  -16.73319
      H1   -15.59050   13.27548  -16.74152
       H   -13.95380   10.67357  -17.36844
       O   -13.06341   10.45142  -17.12964
      H1   -13.04784   10.39043  -16.16904
       H    -3.90870    8.48700  -13.00494
       O    -4.83140    8.53454  -12.66480
      H1    -5.39472    8.17130  -13.34681
       H   -13.09746    6.99429  -14.31010
       O   -12.63539    6.66452  -15.05764
      H1   -11.76110    6.62364  -14.66223
       H    -1.62029    7.48987  -13.55532
       O    -1.92496    8.23870  -13.05718
      H1    -1.64784    8.15783  -12.17341
       H   -11.41935   14.77448  -12.58189
       O   -11.46061   14.89635  -11.60987
      H1   -11.48649   15.87381  -11.41470
       H   -14.29182    8.61095  -12.10123
       O   -14.16559    8.39480  -13.06754
      H1   -14.67267    9.01347  -13.60467
       H    -9.33350   11.95879  -14.83874
       O   -10.25174   11.94605  -15.15834
      H1   -10.69367   11.08261  -15.11730
       H    -6.62018    3.87992  -11.07402
       O    -6.93526    3.32602  -11.84552
      H1    -7.15255    3.98308  -12.54072
       H    -7.61269    4.57313  -14.51830
       O    -7.80096    5.19488  -13.78578
      H1    -7.11729    5.89632  -14.04860
       H    -9.75410   14.17619  -11.61081
       O    -8.87955   13.70891  -11.50737
      H1    -8.22234   14.33164  -11.28235
       H    -3.09463   10.36834  -17.64008
       O    -3.37522   10.39268  -16.69159
      H1    -4.28067   10.78142  -16.71370

