162
frame 4 | Written by MDAnalysis XYZWriter (release 2.4.3)
       H    13.47100  -13.15555    4.30671
       O    12.63301  -13.07572    3.79538
      H1    12.01540  -13.79670    4.03394
       H     3.89708   -8.04844    3.62540
       O     4.59950   -7.99807    2.94622
      H1     4.20516   -7.64593    2.09242
       H     9.07539  -13.28720   -0.58865
       O     8.78932  -12.91431   -1.42896
      H1     8.51218  -11.97369   -1.29064
       H    10.65001  -14.60159    2.61439
       O    10.88685  -15.12564    3.38266
      H1    11.54241  -15.68468    3.01287
       H     9.30972   -9.24491    6.74154
       O     8.41966   -9.45631    6.32695
      H1     8.54681  -10.05664    5.52442
       H    12.87439  -11.16621    1.03607
       O    12.37621  -10.57299    0.47118
      H1    11.95875  -11.16075   -0.22443
       H    12.11477  -14.30521   -1.76793
       O    12.21891  -14.85861   -2.57193
      H1    12.67430  -15.62944   -2.27162
       H     6.09718   -7.04857    4.19119
       O     6.41913   -6.14689    4.32201
      H1     5.60684   -5.53450    4.21555
       H     7.77295   -5.93050    6.05453
       O     7.92330   -6.18000    6.97708
      H1     8.43322   -6.98474    6.83334
       H    13.85161  -12.53424    2.44933
       O    14.22376  -12.57893    1.55529
      H1    15.09487  -12.98610    1.61607
       H     9.27077  -14.46540    6.97060
       O    10.13172  -14.33188    6.55122
      H1     9.88528  -13.93638    5.68120
       H     7.99203  -17.10134    0.38603
       O     8.14950  -16.32306    0.91690
      H1     8.21429  -16.61509    1.82221
       H     7.75186  -14.11324   -2.69421
       O     7.17213  -14.60729   -3.28973
      H1     7.74430  -14.69543   -4.10877
       H     7.09584  -10.14849   -1.53918
       O     8.01318  -10.30483   -1.38348
      H1     8.52773   -9.82011   -2.05233
       H     6.76197   -5.41303    2.56188
       O     7.43467   -5.09358    1.89448
      H1     6.94078   -4.47387    1.32332
       H     5.57374  -13.69770   -3.17743
       O     4.67039  -13.36262   -3.15700
      H1     4.08432  -13.82706   -3.79644
       H     5.15222   -9.52880    2.50602
       O     5.56979  -10.28715    2.06666
      H1     6.52539  -10.07079    2.17373
       H     1.88994  -11.05279    1.37477
       O     2.19361  -10.45088    2.05000
      H1     1.62708   -9.74190    1.81485
       H    13.65744   -9.35655    3.16885
       O    14.42477   -9.11679    2.59825
      H1    15.06399   -8.58036    3.12767
       H     7.72208  -13.76680    3.01636
       O     6.95781  -13.79054    3.54558
      H1     6.11863  -13.88109    3.05322
       H    12.28937  -11.37329    4.00405
       O    12.10351  -10.41046    4.05307
      H1    12.38405  -10.19842    4.94911
       H     2.39678  -15.19640   -0.19763
       O     2.31791  -14.35183    0.21319
      H1     3.00299  -13.77314   -0.14853
       H     8.82889   -9.20515    1.55149
       O     8.33948  -10.02985    1.43269
      H1     8.35269  -10.03971    0.46166
       H    11.93914   -3.94383   -0.56647
       O    11.68908   -4.89664   -0.46132
      H1    12.30606   -5.40243   -1.08846
       H    13.06468  -13.80314    0.52003
       O    12.12661  -13.94944    0.33035
      H1    11.84003  -14.86903    0.54151
       H     5.65695  -17.57229    1.94379
       O     4.98017  -16.88513    1.70525
      H1     5.35588  -16.14832    1.14430
       H    11.70525   -7.53066    5.05852
       O    10.95615   -7.37042    4.45414
      H1    11.27677   -7.55062    3.55654
       H     6.84864  -14.68929    0.73580
       O     5.83044  -14.59532    0.64101
      H1     5.67581  -13.81760    0.07083
       H    14.11208  -10.09968   -0.63622
       O    14.80764   -9.82921   -1.27209
      H1    15.08199   -8.90837   -1.05811
       H     5.49300   -8.40112    7.05778
       O     5.84428   -9.32419    7.06470
      H1     6.83164   -9.28655    7.03770
       H     5.16602  -10.18386   -3.70244
       O     4.85923  -10.92144   -4.26513
      H1     4.83983  -11.75097   -3.79065
       H     8.79510  -10.67298    3.28801
       O     9.31276  -11.12809    4.02286
      H1    10.14447  -10.64627    4.06605
       H     9.47622   -6.27979   -1.03463
       O     8.98697   -6.10388   -1.88495
      H1     9.12367   -7.00229   -2.22568
       H    12.41972   -9.55360   -3.87922
       O    13.18637   -9.08848   -3.57637
      H1    13.83175   -9.73153   -3.22297
       H    11.62531   -5.14811    2.24143
       O    11.59026   -4.52220    2.98383
      H1    10.74509   -4.68674    3.47472
       H     5.53120  -10.71889    5.99212
       O     5.28481  -11.28759    5.23674
      H1     6.05689  -11.37276    4.65888
       H     8.42554   -5.42724    4.02343
       O     9.23010   -5.16858    4.46003
      H1     9.65712   -5.97885    4.48911
       H     5.95608   -6.35687    7.08367
       O     5.05784   -6.69960    7.07292
      H1     4.92182   -6.72795    6.15938
       H    11.17170  -16.83863   -0.11691
       O    11.01655  -16.30479    0.68346
      H1    10.06460  -16.07570    0.68318
       H     7.00891  -15.09369    5.02607
       O     7.27707  -15.48135    5.88582
      H1     7.38075  -16.42759    5.72299
       H     3.06292  -10.28832    3.77819
       O     3.21980   -9.81729    4.60798
      H1     4.09351  -10.21244    4.91261
       H     4.59914   -6.71244    0.04350
       O     3.87076   -6.53247    0.69767
      H1     3.75867   -5.58396    0.67075
       H    12.44895   -7.16945    1.54923
       O    11.73826   -7.81646    1.82115
      H1    12.16264   -8.63861    1.51995
       H     3.82174  -13.13994    5.21720
       O     3.01086  -13.63838    5.11797
      H1     3.05870  -14.26184    4.41440
       H    10.21543   -7.43835    0.84039
       O     9.29055   -7.46046    0.54559
      H1     8.91484   -6.71011    1.10296
       H     2.86534  -11.64100   -1.18935
       O     3.57351  -12.28932   -0.98523
      H1     3.64652  -12.64722   -1.88547
       H     9.75758  -12.28365    2.13446
       O     9.76183  -13.07535    1.54121
      H1    10.66283  -13.03913    1.14944
       H     8.61356  -17.41451    4.35847
       O     8.74448  -16.95806    3.50270
      H1     9.54829  -16.37599    3.49171
       H     6.63321   -8.19944   -3.90451
       O     5.74689   -8.11262   -3.60669
      H1     5.79575   -7.84462   -2.67412
       H     5.79222   -5.71444   -1.48037
       O     6.07774   -6.55045   -1.18384
      H1     6.97915   -6.48518   -0.86779
       H    10.05522  -11.91217   -1.73899
       O    10.80809  -11.36247   -2.01622
      H1    10.92565  -11.57294   -2.95586
       H    10.23532   -9.41463   -2.73750
       O     9.44818   -8.98960   -3.13310
      H1     9.78548   -8.56367   -3.90850
       H    11.28001   -8.81737    8.51159
       O    10.75434   -9.32341    7.86352
      H1    11.37843  -10.03438    7.69011
       H     5.34659  -10.08116    0.23618
       O     5.29961  -10.26492   -0.69589
      H1     4.69274  -11.05740   -0.73773

