162
frame 6 | Written by MDAnalysis XYZWriter (release 2.4.3)
       H     7.25616   -8.03319  -13.03942
       O     7.12472   -8.95541  -12.84190
      H1     7.94101   -9.37280  -12.47903
       H     6.42615   -5.62916  -13.65663
       O     7.24305   -6.14953  -13.56585
      H1     7.53778   -5.61689  -12.78174
       H     8.00548   -4.97874  -15.20072
       O     7.90559   -4.14307  -15.73602
      H1     7.15284   -3.68426  -15.40409
       H    14.89778   -0.83889  -16.12570
       O    14.98431   -0.07507  -15.60127
      H1    15.96212    0.13810  -15.38697
       H    10.11313   -8.09642  -17.30379
       O    10.02650   -8.56935  -18.12020
      H1     9.82494   -7.89830  -18.78303
       H    14.98117   -7.30452  -18.93137
       O    15.31679   -8.16064  -18.50512
      H1    15.83297   -7.98527  -17.70020
       H    11.89861  -10.47294  -11.18067
       O    11.57090   -9.54685  -11.17592
      H1    11.92667   -8.99201  -11.89843
       H    13.62897    1.59217  -17.71697
       O    14.04328    2.05890  -16.97044
      H1    14.32479    1.34885  -16.33130
       H     6.91939    0.38270  -19.20947
       O     6.42405    0.83811  -18.50990
      H1     5.74627    1.34624  -18.90970
       H    13.19352   -2.08606  -10.56217
       O    12.81141   -1.27987  -10.25429
      H1    11.96533   -1.22675  -10.76062
       H     8.10707   -1.96966  -19.10975
       O     8.90669   -2.10858  -18.55944
      H1     9.47267   -2.64756  -19.11860
       H    16.49749   -5.64778  -12.04942
       O    15.59249   -5.85884  -12.22811
      H1    15.32431   -6.68168  -11.75463
       H     9.48114   -0.63220  -17.82695
       O     9.90663    0.05501  -17.27935
      H1    10.17330   -0.35446  -16.44312
       H    14.86630   -5.70819  -14.15837
       O    14.40820   -5.84471  -14.99895
      H1    13.67022   -6.39889  -14.80040
       H     4.43262   -5.39125  -17.96287
       O     5.09835   -5.50311  -17.28802
      H1     5.78517   -5.11059  -17.80551
       H    10.36240   -5.09515  -16.05643
       O    11.06030   -4.55067  -16.48252
      H1    10.97602   -3.65222  -16.09240
       H     9.11044   -9.98938  -14.30361
       O     9.62432   -9.52714  -14.96822
      H1     9.09489   -9.61638  -15.74902
       H    10.28607   -3.04322  -10.32528
       O    10.61595   -3.77665  -10.91566
      H1    10.96779   -3.32084  -11.75578
       H     9.83503    2.10015  -16.41558
       O     9.76745    2.55170  -15.52122
      H1     9.40983    1.84767  -14.93184
       H    15.07234   -3.36547  -18.66961
       O    14.26256   -2.84376  -18.54039
      H1    14.12663   -2.76405  -17.58615
       H    14.71025   -2.55960  -14.71843
       O    14.42782   -2.92816  -15.56369
      H1    14.27608   -3.85295  -15.45329
       H    12.16218   -9.69815  -18.00580
       O    13.07861   -9.53038  -17.76852
      H1    13.42239   -8.68376  -18.04241
       H    11.22319   -1.16476  -13.28496
       O    11.40080   -2.05027  -12.95642
      H1    12.31304   -2.19024  -12.92046
       H     5.43439   -3.15908  -14.21693
       O     6.00758   -2.42935  -14.52589
      H1     5.46666   -1.71872  -14.88292
       H    15.17167   -3.62108  -11.17221
       O    14.47943   -3.41383  -10.49346
      H1    14.34441   -4.19261   -9.95639
       H    12.43640  -12.14215  -19.69159
       O    13.31753  -12.01892  -19.39939
      H1    13.29420  -11.08428  -19.10077
       H    17.87152   -4.91891  -17.52009
       O    17.05864   -4.48704  -17.80955
      H1    17.09836   -3.65112  -17.30355
       H     7.11973   -0.03999  -15.48027
       O     6.26075    0.19036  -15.86148
      H1     6.50920    0.31278  -16.77682
       H     5.65328   -7.71680  -15.01117
       O     6.02835   -7.69543  -15.87837
      H1     5.68301   -6.94258  -16.32553
       H     4.99103   -8.55530  -17.68097
       O     5.11073   -8.80525  -18.62551
      H1     5.89521   -9.36846  -18.64408
       H     8.97508   -6.93691   -9.22429
       O     8.28727   -6.71735   -9.89085
      H1     8.59478   -5.87566  -10.33623
       H    18.37080   -1.68965  -16.39086
       O    17.57949   -2.02359  -16.80986
      H1    17.44270   -1.56615  -17.63477
       H     8.95462   -1.21443  -14.62038
       O     8.42383   -0.41298  -14.42647
      H1     8.36170   -0.50865  -13.45370
       H     7.24151   -9.15036  -16.42687
       O     7.75651   -9.83193  -16.92659
      H1     8.29629   -9.29094  -17.57013
       H     9.77543   -1.21936   -9.06108
       O     9.93776   -1.25214  -10.01655
      H1     9.06651   -0.97768  -10.35942
       H    15.09075   -9.60131  -14.96057
       O    14.58124   -9.66850  -14.15173
      H1    13.79098  -10.18377  -14.41139
       H    12.66132    0.10535  -19.57308
       O    12.29886    0.71478  -18.89865
      H1    11.60599    0.10902  -18.51012
       H    15.10845   -9.09552  -11.51026
       O    14.66025   -8.28238  -11.17624
      H1    14.77617   -8.31267  -10.19562
       H    10.39441   -2.63196  -14.35154
       O    10.15564   -2.37048  -15.28010
      H1     9.50440   -2.95151  -15.62342
       H    12.40197   -7.05000  -12.73089
       O    12.35247   -7.89770  -13.26298
      H1    13.27028   -8.28339  -13.18067
       H     4.49794   -6.55841  -13.96317
       O     4.31855   -7.45888  -13.60298
      H1     4.82850   -7.54519  -12.76843
       H     3.97098   -4.97090  -13.95337
       O     4.79111   -4.89556  -14.49150
      H1     4.61812   -4.94947  -15.44262
       H    10.06222   -7.52845  -15.06131
       O     9.38969   -6.82842  -15.32741
      H1     8.56494   -7.21408  -15.04127
       H    13.42913   -5.55834  -11.50675
       O    12.64695   -5.63055  -11.95391
      H1    11.93334   -5.36784  -11.40783
       H    14.33453  -10.69801  -17.02675
       O    15.31752  -10.97383  -17.09983
      H1    15.43285  -10.89859  -18.04154
       H    17.25341   -6.75990  -16.21728
       O    16.66891   -7.36639  -15.70508
      H1    15.94234   -6.82197  -15.33827
       H    16.21550   -2.40881  -13.71339
       O    15.53534   -2.33895  -12.99765
      H1    15.39132   -1.34133  -12.97864
       H    11.94396    1.33086  -13.57263
       O    11.22936    0.69044  -13.43111
      H1    10.56776    1.19243  -12.96288
       H     6.04217   -0.56401  -11.49688
       O     6.91043   -0.97552  -11.73860
      H1     6.79695   -1.23961  -12.65283
       H    11.21387  -10.49996  -14.55419
       O    11.88766  -11.28276  -14.54510
      H1    11.84189  -11.63775  -15.40044
       H    10.57135   -4.58098  -19.47909
       O    10.80517   -3.67142  -19.66572
      H1    11.30088   -3.47804  -18.82765
       H    10.02819  -10.43279  -12.06287
       O     9.24774  -10.76698  -12.48546
      H1     9.63296  -11.58117  -12.90091
       H     9.04054   -4.12237  -11.25787
       O     8.12225   -4.50395  -11.38876
      H1     7.61401   -3.97463  -10.76434
       H     7.94409   -4.30224  -17.58007
       O     7.54775   -4.71459  -18.36226
      H1     7.26370   -4.03460  -18.99805

