162
frame 10 | Written by MDAnalysis XYZWriter (release 2.4.3)
       H     9.04717   -8.63607  -14.32962
       O     8.42629   -9.03911  -13.64477
      H1     8.66010   -9.99051  -13.83718
       H     7.40056   -6.79891  -12.44548
       O     7.97161   -5.96639  -12.66650
      H1     8.50506   -5.87198  -11.88938
       H     8.74725   -4.07763  -15.64300
       O     8.32813   -3.22453  -15.79071
      H1     7.88758   -2.93352  -14.95954
       H    11.40088   -9.01526  -11.07593
       O    11.66027   -8.40811  -10.32804
      H1    12.21536   -7.64469  -10.60692
       H     8.27411   -8.36440  -11.58984
       O     7.76511   -8.20832  -10.72522
      H1     8.35684   -7.56657  -10.33840
       H     3.56370   -4.54507   -9.35873
       O     2.80280   -4.72997   -9.86033
      H1     2.87519   -5.61464  -10.29161
       H     5.74127  -12.94547  -12.95479
       O     4.91012  -12.63604  -12.59548
      H1     4.65016  -11.94600  -13.18813
       H     3.98997  -11.50581  -17.11782
       O     3.22919  -11.30613  -17.68947
      H1     2.45778  -11.75519  -17.31118
       H     6.44839   -5.52038  -18.94357
       O     6.67982   -6.46728  -18.79412
      H1     5.88092   -6.92045  -19.18816
       H     3.63126   -9.24533   -9.02343
       O     3.49889   -8.36799   -9.42908
      H1     4.30871   -7.90944   -9.26532
       H     7.27808  -15.28784  -17.18769
       O     7.74688  -14.46563  -17.17297
      H1     7.90227  -14.23385  -18.12925
       H     5.87231   -6.21981  -16.95481
       O     5.02482   -6.40820  -16.57000
      H1     5.08126   -6.12558  -15.63769
       H    10.02863   -5.25084  -17.82892
       O    10.63130   -5.99900  -17.94134
      H1     9.91953   -6.65166  -18.16158
       H     8.76676   -9.07376  -16.52069
       O     9.57679   -8.72226  -16.06708
      H1     9.43084   -7.73637  -15.93177
       H     3.69472   -9.52125  -16.97340
       O     3.55381   -8.64271  -17.34856
      H1     4.01355   -7.93338  -16.84105
       H    10.83506  -12.85421  -10.81462
       O     9.95453  -12.68909  -10.40300
      H1     9.51271  -13.50033  -10.67353
       H    11.53086   -4.36769  -10.02280
       O    11.50383   -4.73703  -10.91300
      H1    11.13881   -3.96759  -11.39119
       H    11.63245   -8.49828  -16.18254
       O    12.54473   -8.24010  -16.26113
      H1    12.72925   -8.02916  -17.18798
       H     6.51150   -3.53724  -13.24562
       O     7.13983   -2.79085  -13.21369
      H1     6.53505   -2.19554  -13.60574
       H     9.52468  -13.26829  -17.47384
       O    10.32777  -12.94516  -17.90046
      H1    11.16281  -13.35353  -17.51384
       H     9.22321  -10.91999   -8.15836
       O     9.94167  -11.50107   -7.96402
      H1    10.16263  -11.98859   -8.76772
       H     8.81308  -15.47969  -12.10716
       O     9.13955  -15.10923  -11.30849
      H1     8.53380  -15.40976  -10.61583
       H     2.95913   -7.72768  -11.00701
       O     2.73029   -6.98846  -11.57870
      H1     1.77859   -7.04530  -11.74230
       H     3.67453  -15.55633  -14.70107
       O     3.75759  -15.52022  -13.70581
      H1     3.80488  -14.62101  -13.34969
       H     6.92317   -8.99238  -14.40144
       O     6.15262   -9.20065  -14.96557
      H1     5.45954   -9.49639  -14.45039
       H     2.90605  -14.00657  -18.99452
       O     3.43095  -13.55425  -19.69391
      H1     3.64587  -12.70500  -19.28620
       H     9.39051   -8.06586   -7.16531
       O     8.99253   -7.21326   -7.48912
      H1     9.41222   -6.96539   -8.29951
       H     2.00865   -8.91441  -19.63498
       O     1.96872   -9.88651  -19.63224
      H1     2.46342  -10.19715  -18.90235
       H     3.23617   -9.95879  -14.23291
       O     3.25119  -10.91422  -14.32593
      H1     2.36999  -11.15772  -13.94874
       H     6.95334   -9.40102  -16.55179
       O     7.51805   -9.53886  -17.34911
      H1     7.26731   -8.85795  -17.96423
       H    10.33586  -11.16926  -11.22173
       O    10.64806  -10.45851  -11.79920
      H1    10.88180  -10.92506  -12.60404
       H     7.17792  -10.72060   -8.89110
       O     7.79959   -9.98680   -8.72723
      H1     7.86856   -9.47405   -9.51586
       H    10.93539  -11.68725  -15.20997
       O    11.76940  -11.80764  -14.72080
      H1    12.51041  -11.26191  -15.11607
       H    12.20615   -6.93598  -13.61836
       O    12.07205   -6.32783  -14.36289
      H1    12.35318   -6.86579  -15.08500
       H     2.55847   -7.69519  -14.63661
       O     3.23637   -8.10670  -13.99953
      H1     3.09773   -7.59862  -13.20086
       H     4.68289   -5.81459  -12.74247
       O     5.33349   -6.14306  -13.37527
      H1     4.87712   -6.91910  -13.75570
       H     4.47119   -4.03446  -18.70821
       O     5.19004   -4.01793  -18.04076
      H1     4.90861   -4.56466  -17.27603
       H    10.33871   -5.95981  -14.72725
       O     9.47380   -6.20634  -14.97207
      H1     9.03575   -6.35326  -14.15906
       H     6.91827  -11.03945  -18.22471
       O     6.77924  -11.96653  -18.45822
      H1     6.22988  -12.36056  -17.79612
       H    14.04804   -6.13978  -10.88039
       O    13.33682   -6.49781  -11.54958
      H1    12.64578   -5.87097  -11.39924
       H    14.05623  -10.17623  -14.58010
       O    13.95281  -10.66214  -15.40865
      H1    13.73729   -9.94560  -15.99083
       H     3.58613  -11.96559   -9.48845
       O     3.92904  -12.79428   -9.85863
      H1     4.15813  -12.60384  -10.79504
       H     6.89822  -13.49333  -14.65324
       O     7.24053  -13.47504  -13.79021
      H1     7.82510  -14.23419  -13.65991
       H     2.09380   -7.93838  -16.53346
       O     1.36731   -7.54476  -16.03807
      H1     1.23456   -6.66379  -16.44298
       H     2.89415   -4.35406  -14.94254
       O     2.29863   -4.77478  -15.59263
      H1     1.86534   -4.04183  -16.07866
       H     6.68526   -1.51068  -10.27730
       O     7.24980   -2.23255  -10.58720
      H1     6.97557   -2.46208  -11.50401
       H    10.44523   -9.73669  -17.48816
       O    10.89694  -10.20502  -18.25874
      H1    10.52270  -11.17108  -18.20621
       H     3.45274   -2.40722  -14.40605
       O     3.61649   -3.15214  -13.75978
      H1     3.67250   -2.65431  -12.95471
       H     8.96451  -11.39974  -12.84287
       O     9.02884  -11.54286  -13.86013
      H1     8.32211  -12.26664  -13.95876
       H    10.08352   -5.51136  -10.15427
       O     9.16167   -5.76598   -9.89497
      H1     8.76185   -4.95275   -9.63100
       H     5.62530   -6.44638   -8.62617
       O     5.45555   -6.67535   -9.59639
      H1     6.21477   -7.16918   -9.83979
       H     0.42321  -11.79039  -13.28469
       O     0.83508  -11.02931  -12.82205
      H1     0.12636  -10.36970  -12.91014
       H     8.05179   -3.50018  -17.49110
       O     8.24212   -3.76409  -18.38530
      H1     8.90116   -3.10793  -18.62926
       H     6.21794  -13.61346  -16.36500
       O     5.71767  -12.90564  -15.88810
      H1     4.80663  -13.16400  -15.83351

