162
frame 2 | Written by MDAnalysis XYZWriter (release 2.4.3)
       H     7.34708  -17.06496   13.15993
       O     8.04789  -17.29796   12.58904
      H1     8.81845  -17.25125   13.18110
       H     1.73431  -19.46815   -2.79309
       O     2.51096  -19.46875   -2.23814
      H1     2.31914  -18.92414   -1.46617
       H    -0.41811  -16.65073    1.50667
       O     0.45583  -17.01658    1.37150
      H1     1.03594  -16.46427    1.93539
       H     0.22578  -12.65105    5.28582
       O    -0.06074  -11.79044    5.54197
      H1     0.73829  -11.32872    5.87549
       H     9.47671  -14.08818    5.95495
       O    10.30646  -14.13020    6.36940
      H1    10.97115  -14.38967    5.68871
       H     9.05416  -17.74179    1.60952
       O     9.31915  -16.81243    1.79708
      H1     9.25260  -16.78909    2.73106
       H     2.79869  -15.18037    1.38735
       O     2.75478  -15.73137    2.15329
      H1     3.49882  -16.31855    2.10416
       H     0.66999  -12.26809   11.58412
       O     0.29534  -12.89874   10.93764
      H1     0.13761  -12.39508   10.11907
       H     9.71299  -18.18591   -0.60839
       O     9.08179  -18.60232   -0.05820
      H1     8.25856  -18.49796   -0.54661
       H     5.29987  -13.51860   11.68208
       O     5.75331  -14.33794   11.92512
      H1     6.42199  -14.45923   11.21527
       H     5.72157  -11.67377    2.28222
       O     5.89731  -12.62125    2.58160
      H1     5.68694  -13.11213    1.77934
       H     3.92746  -13.36297   -0.78938
       O     4.05190  -13.42069    0.16329
      H1     3.59110  -12.62338    0.43960
       H    -0.05781  -14.22919    4.26660
       O     0.60543  -14.27692    4.94572
      H1     1.50555  -14.31065    4.62385
       H     5.28790  -18.14422    1.62320
       O     4.80325  -17.36666    1.64056
      H1     5.57465  -16.79795    1.86874
       H     4.41068  -11.90712    8.35816
       O     3.76592  -12.46784    7.90304
      H1     4.39085  -13.14466    7.40937
       H     7.66917  -15.87273    1.63136
       O     6.81126  -15.37663    1.56417
      H1     6.83373  -15.07109    0.69572
       H     5.96262  -17.36098    9.86250
       O     6.85550  -17.15300   10.12203
      H1     6.88289  -17.42277   11.06930
       H    -3.99227  -16.47100    5.55986
       O    -3.02950  -16.31861    5.51847
      H1    -2.64255  -17.14798    5.09542
       H     6.38508  -15.87491   -1.30692
       O     5.84811  -16.76372   -1.48658
      H1     6.22017  -17.05205   -2.30509
       H     4.16016  -17.40004    7.77703
       O     4.47540  -17.22438    8.68166
      H1     3.70908  -16.79099    9.11863
       H     0.27528  -18.30142    7.98063
       O     0.15069  -17.62998    8.62769
      H1     1.02261  -17.39728    8.93642
       H    -2.86006  -18.10459    3.45196
       O    -2.42597  -18.65790    4.15478
      H1    -1.48115  -18.62237    3.98637
       H    -3.31477  -19.22551    8.89401
       O    -3.42099  -18.27167    8.85219
      H1    -2.54757  -17.94320    8.51970
       H     9.60585  -17.55817    8.39785
       O     9.55123  -18.14180    9.20091
      H1     8.85269  -17.82059    9.76991
       H     0.81380  -11.16215    8.45248
       O    -0.08178  -11.35315    8.54029
      H1    -0.38397  -11.70006    7.67058
       H     4.20192  -17.51151    5.32523
       O     3.63587  -18.05298    5.89083
      H1     2.83904  -17.50504    5.85020
       H     4.20870  -11.28773    5.05288
       O     3.83095  -11.98580    4.47956
      H1     4.52064  -12.33051    3.89451
       H    -3.01346  -14.55945    5.39119
       O    -3.12557  -13.62340    5.28429
      H1    -3.79823  -13.57588    4.59013
       H     2.06041  -19.31511   12.12241
       O     2.90373  -18.83747   11.88854
      H1     3.33325  -19.39051   11.18860
       H    -1.97178  -15.51835    0.95399
       O    -1.91213  -15.94553    1.79478
      H1    -1.82040  -15.14705    2.35318
       H    -1.14478  -19.00716   11.33277
       O    -0.24970  -19.08530   10.97599
      H1    -0.20251  -18.41010   10.21816
       H     0.49943  -16.56384    6.85462
       O     0.72894  -16.70197    5.94497
      H1     0.76454  -15.83024    5.55144
       H    -3.50567  -16.69089    2.26783
       O    -4.16968  -17.34313    2.57174
      H1    -5.05128  -16.87074    2.48039
       H     4.67093  -11.62065   10.58821
       O     4.22060  -12.17365   11.23513
      H1     3.64781  -12.75397   10.67747
       H     2.59531  -17.28304   -2.39052
       O     3.04206  -16.38820   -2.21720
      H1     3.94079  -16.50767   -1.99369
       H     0.77177  -13.86989   -1.32861
       O     1.11639  -14.59566   -0.71955
      H1     1.78330  -15.12504   -1.23385
       H     2.53585  -11.03026    7.20486
       O     1.87372  -10.33478    7.00894
      H1     2.44152   -9.54495    6.83246
       H     7.92129  -13.81583    4.95372
       O     7.58853  -14.23571    5.78208
      H1     6.99680  -14.84361    5.32048
       H     1.83649   -9.61941    3.07276
       O     2.81576   -9.66550    3.18190
      H1     2.97845  -10.56629    3.59733
       H     2.58630  -15.53589   10.27210
       O     2.38844  -16.49356   10.16020
      H1     2.38036  -17.03859   10.94699
       H     1.62673  -11.86468    0.81875
       O     0.84130  -12.28068    1.11013
      H1     0.92543  -13.21295    0.76401
       H     6.43548  -17.06119    6.37094
       O     6.24072  -16.74500    5.50083
      H1     7.10816  -16.70046    5.05045
       H     3.44562  -13.78718    4.61206
       O     3.22810  -14.72750    4.60143
      H1     3.09782  -14.86014    3.61452
       H     1.58892  -17.42957    0.21668
       O     2.39824  -18.02412   -0.01788
      H1     3.21363  -17.46168    0.13760
       H     0.35250  -17.90953    4.68989
       O     0.27674  -18.60658    4.08811
      H1     0.83389  -18.41228    3.34902
       H     6.89608  -14.38260    9.35013
       O     7.57596  -14.58320   10.09803
      H1     7.53929  -15.52888   10.17297
       H    -1.50817  -12.81862    3.00351
       O    -1.31283  -13.68592    3.30531
      H1    -1.82022  -13.60473    4.14269
       H     8.86143  -12.35255    3.73302
       O     8.86873  -13.30842    3.54004
      H1     8.30049  -13.37252    2.75723
       H     1.74588  -13.42368   10.28963
       O     2.58412  -13.85761    9.92172
      H1     2.98777  -13.37221    9.16427
       H     8.39320  -17.95028    4.46817
       O     8.77068  -17.11176    4.59816
      H1     9.19762  -17.14748    5.48047
       H     9.95338  -15.81733    6.96228
       O    10.12334  -16.76327    6.95822
      H1    11.05994  -16.86833    7.22196
       H     4.47914  -15.93219   12.27095
       O     3.87302  -16.42771   12.87915
      H1     3.78893  -17.34693   12.54505
       H    -0.01572  -15.91049   10.47069
       O    -0.82451  -15.53950   10.82672
      H1    -0.78186  -14.58858   10.83918
       H     6.51030  -14.02770    7.40191
       O     5.90099  -14.12903    8.17210
      H1     5.57928  -15.04691    8.20334

