162
frame 11 | Written by MDAnalysis XYZWriter (release 2.4.3)
       H   -15.31494   14.43437    3.89038
       O   -15.43864   14.69592    4.83637
      H1   -15.92728   15.54514    4.73896
       H   -12.80085    9.91356    3.66175
       O   -13.60803   10.19513    3.23187
      H1   -13.31816   10.79513    2.57695
       H   -17.18973   13.80660    4.82492
       O   -17.90933   13.43632    4.33394
      H1   -17.46844   12.75363    3.77110
       H   -12.87692   17.81634    0.19374
       O   -13.22989   18.50199    0.76761
      H1   -12.64572   19.26444    0.50670
       H   -12.73838   15.18631    0.18308
       O   -12.73283   15.95249   -0.40319
      H1   -13.18615   15.57807   -1.17763
       H   -11.81027    7.04152   -4.33722
       O   -11.00518    6.93600   -3.83605
      H1   -11.15609    6.66303   -2.87265
       H   -17.97066   12.24900   -5.99283
       O   -18.70624   12.92342   -5.82331
      H1   -19.53109   12.59886   -6.14877
       H   -15.49970    5.96352   -2.74167
       O   -14.68179    5.96734   -2.19561
      H1   -14.30883    6.83318   -2.46110
       H   -10.04120   11.07998   -7.62089
       O   -10.25753   10.22132   -7.29001
      H1   -10.23342   10.38501   -6.34143
       H   -13.85633    9.48646    0.01411
       O   -13.10911    8.89135   -0.16233
      H1   -13.12736    8.28662    0.60916
       H   -14.73455    8.25148   -3.40747
       O   -13.83670    8.38362   -3.08621
      H1   -13.85045    8.95022   -2.27927
       H   -13.41929   15.76301   -3.47533
       O   -14.08393   15.45823   -2.81819
      H1   -14.91638   15.92805   -2.94969
       H    -8.10463   11.48678   -3.71350
       O    -7.93373   12.22791   -4.28922
      H1    -8.23199   11.95190   -5.16247
       H    -7.61048   13.36697    0.43304
       O    -7.17133   12.54221    0.33966
      H1    -6.34973   12.71261   -0.13168
       H   -14.86638   17.78113    2.38451
       O   -15.35414   18.42647    2.96375
      H1   -16.25769   18.24450    2.75409
       H   -13.72376   12.83331   -4.47860
       O   -14.30882   12.93547   -5.22117
      H1   -13.72014   13.04652   -6.00562
       H   -11.82075   18.10574    1.98819
       O   -10.90799   18.36330    2.30337
      H1   -10.60148   17.74233    2.93778
       H   -11.40874   15.68869   -4.37315
       O   -12.21774   16.22210   -4.53334
      H1   -11.87156   17.13773   -4.57871
       H   -16.07824   17.73398   -2.07738
       O   -16.49438   16.87046   -2.31269
      H1   -16.90039   16.91810   -3.17389
       H   -19.10943   14.39285   -0.08277
       O   -18.81195   13.74116    0.55470
      H1   -19.09121   14.06796    1.39795
       H   -15.69555   19.80476   -0.82194
       O   -15.14399   19.13896   -1.28540
      H1   -14.58007   18.95576   -0.50427
       H   -17.64727   12.19795    1.45557
       O   -16.92797   12.11818    2.03703
      H1   -16.81655   11.14161    2.08300
       H   -14.38418   13.75840   -2.27378
       O   -13.98521   12.97457   -1.86419
      H1   -14.65376   12.29903   -1.68692
       H   -18.03716    9.77542   -4.89976
       O   -18.94526    9.72436   -4.48639
      H1   -18.71793    9.19422   -3.68024
       H   -16.31056    9.47434   -4.19331
       O   -16.29708    8.54027   -4.43574
      H1   -16.58126    8.46625   -5.39230
       H   -16.92992   13.69047   -9.50092
       O   -16.90196   13.10232   -8.75192
      H1   -16.69721   13.60933   -7.97866
       H    -7.82333   15.43950   -2.61670
       O    -7.23477   14.76800   -2.21047
      H1    -7.63782   13.95154   -2.54517
       H    -9.77916   14.81011   -1.43335
       O    -9.95759   14.93523   -0.50673
      H1   -10.57870   15.68555   -0.53365
       H   -11.51704   11.06148   -1.67488
       O   -11.79955   11.43229   -2.51929
      H1   -12.47124   12.10925   -2.27884
       H   -15.78010   10.27677    0.54269
       O   -15.40845   10.73558   -0.21414
      H1   -16.06865   10.71263   -0.92719
       H    -8.86904   16.07044   -4.22206
       O    -8.97600   16.31939   -3.27198
      H1    -8.39292   17.14940   -3.15738
       H   -16.02610   14.74677    1.15660
       O   -15.49955   14.43479    1.87932
      H1   -15.68565   13.48883    1.87051
       H   -10.13634   13.55353    4.12308
       O    -9.63400   13.76214    3.29009
      H1   -10.29793   13.85893    2.62755
       H   -18.05206   13.91387   -2.98252
       O   -17.81151   13.08570   -3.34084
      H1   -18.27190   12.99841   -4.16032
       H   -19.03248   12.22401   -2.24376
       O   -19.33017   11.79668   -1.36834
      H1   -19.24511   12.42422   -0.67108
       H   -13.69840   16.37013   -7.29785
       O   -12.89848   15.80095   -7.15998
      H1   -12.49946   16.02099   -6.29553
       H   -18.68224   16.95731   -4.16587
       O   -17.82638   17.25452   -4.51040
      H1   -17.85196   16.97430   -5.38352
       H   -13.20298   12.80842   -8.32399
       O   -12.63597   13.10017   -7.61510
      H1   -12.82001   14.07644   -7.50792
       H   -11.13208   10.06184   -3.92990
       O   -10.44149    9.66709   -4.40273
      H1   -10.63967    8.75222   -4.16986
       H   -15.38966   17.74029   -8.01632
       O   -15.22187   16.77041   -8.01900
      H1   -15.74680   16.34692   -7.28882
       H   -12.45874   11.65049    0.82388
       O   -13.22393   11.99080    1.31112
      H1   -13.97437   11.73550    0.80156
       H   -16.30870   10.75587   -6.97002
       O   -16.35875   11.17844   -6.10504
      H1   -15.46671   11.47070   -5.88974
       H   -15.57958    9.23689    2.75397
       O   -16.37819    9.38033    2.28046
      H1   -16.96153    8.62596    2.20867
       H    -8.35422   15.94566   -0.40630
       O    -7.87950   16.74600   -0.24454
      H1    -8.17471   17.09761    0.60916
       H    -8.11448   11.37823   -0.64496
       O    -8.59004   10.78730   -1.27165
      H1    -9.35018   10.53473   -0.71086
       H   -18.55066    9.42448   -0.33665
       O   -18.03895    9.04435   -1.05488
      H1   -17.74935    8.20850   -0.69064
       H   -10.15010   10.29105    0.58923
       O   -10.87059   10.63971    0.15256
      H1   -11.55207    9.95524    0.07838
       H   -18.18214   16.00541   -1.64480
       O   -18.80866   15.30592   -1.81865
      H1   -19.72469   15.63165   -1.77249
       H   -10.52627    6.06420   -0.95183
       O   -11.21549    6.68596   -1.14598
      H1   -11.81591    6.74091   -0.41125
       H   -17.33630   10.14935   -2.25272
       O   -16.62496   10.75387   -2.59974
      H1   -17.06524   11.51588   -2.95174
       H   -10.79693   12.79279   -2.93467
       O   -10.22107   13.50853   -3.27171
      H1    -9.49319   13.02937   -3.71220
       H   -12.32874   13.40871    1.23477
       O   -11.66274   14.14317    1.44464
      H1   -11.12106   14.26051    0.58530
       H   -12.67878    7.91105   -6.38809
       O   -13.30273    7.53745   -5.69655
      H1   -13.48400    8.23734   -5.07253
       H   -15.75031   14.03972   -5.70198
       O   -16.45982   14.50054   -6.07927
      H1   -17.30678   14.14003   -5.76790

