162
frame 4 | Written by MDAnalysis XYZWriter (release 2.4.3)
       H     6.60123    3.92599   10.14977
       O     5.69900    3.60790   10.12598
      H1     5.62357    2.82156   10.59454
       H    -4.00929   -3.06578   12.82989
       O    -3.95409   -2.12347   12.60244
      H1    -3.03658   -2.08005   12.39355
       H     3.45347   -3.23142   14.01784
       O     3.89962   -4.11455   13.88599
      H1     3.27282   -4.77894   14.13893
       H     7.98045   -1.34651   11.40185
       O     7.37855   -0.99764   10.71032
      H1     6.79052   -1.73960   10.61544
       H    -0.42446    4.38667   13.18589
       O    -0.76046    4.46420   14.07028
      H1    -0.44168    3.78534   14.67906
       H     5.15617   -3.10117    9.03910
       O     5.59504   -3.37778    9.85435
      H1     4.97988   -4.00259   10.26010
       H    -0.44103   -1.82525   17.53648
       O     0.17195   -2.24039   16.92505
      H1     0.16300   -3.12676   17.29181
       H     1.02967   -7.55774   13.65896
       O     1.62839   -7.22763   14.34274
      H1     2.49662   -7.38699   13.97661
       H    -0.88744   -0.89284   13.08371
       O    -1.39909   -0.84400   12.25857
      H1    -1.72025    0.09245   12.33555
       H     5.24893   -3.50163   16.20441
       O     5.97958   -3.66447   15.53227
      H1     5.50173   -3.71852   14.70835
       H     4.76309    3.49912   14.51713
       O     4.76320    2.66915   15.04462
      H1     3.91176    2.62836   15.47772
       H     0.77711   -3.66463    8.61286
       O     0.13185   -3.20301    9.20284
      H1    -0.18923   -2.53182    8.59755
       H     4.15048   -1.62259   17.49335
       O     4.29050   -0.79964   17.01338
      H1     5.16637   -0.85971   16.63084
       H     0.10839    0.88623   14.86486
       O     0.11942    1.74448   15.25659
      H1    -0.19307    1.61118   16.16235
       H     3.96724    0.34494    9.85969
       O     3.57818    0.22501    8.99228
      H1     4.11402    0.80895    8.42548
       H    -1.14536   -4.20871   13.91557
       O    -2.08889   -4.49700   13.98400
      H1    -2.08366   -4.56504   14.99266
       H     8.31129   -6.17532   12.24131
       O     7.60582   -5.56347   11.83860
      H1     7.88209   -5.45276   10.90056
       H     4.47472    5.62499   14.56280
       O     4.75062    5.00181   13.88172
      H1     4.24214    5.20117   13.08525
       H     3.27798   -0.87140   14.01175
       O     3.22819   -1.56208   14.65735
      H1     3.61876   -1.24195   15.49823
       H     3.67340   -6.32552    9.94888
       O     2.78235   -6.44401    9.68928
      H1     2.28705   -5.86264   10.34043
       H    10.17572    0.94887   14.37334
       O     9.75747    0.10928   14.40095
      H1     8.81139    0.34534   14.13393
       H     1.38012   -1.31082   14.45440
       O     0.40635   -1.16140   14.40059
      H1     0.02876   -1.74595   15.05592
       H     0.25593   -1.13134   11.43479
       O     1.17431   -1.19604   11.12417
      H1     1.06544   -1.87013   10.42383
       H     6.31181    2.09182   13.98078
       O     7.19556    1.99558   13.55144
      H1     6.88453    2.05970   12.63900
       H     2.55232    2.54048   19.67439
       O     3.18811    2.03553   19.13040
      H1     3.94743    2.62604   19.13649
       H     8.02371   -3.53516   18.14507
       O     8.44046   -4.28292   18.60458
      H1     9.38918   -4.25391   18.46143
       H    -1.73975   -0.40887   18.83848
       O    -1.74337   -1.40084   18.82831
      H1    -1.43158   -1.68627   19.69894
       H     8.09576   -3.59318   12.27221
       O     8.60575   -2.81628   12.53211
      H1     8.69518   -2.88415   13.49899
       H     4.40475   -4.75607   12.35441
       O     4.83224   -5.29851   11.65647
      H1     5.74865   -5.35062   11.97592
       H     4.81387   -6.97473   13.13171
       O     4.32569   -7.32913   13.88796
      H1     4.56079   -8.28623   13.82012
       H    -0.61444    1.62643   18.47950
       O    -0.29132    1.02689   17.83965
      H1     0.14476    0.27756   18.27575
       H     4.34383   -7.49683   18.79803
       O     3.93820   -6.78249   18.24707
      H1     4.36870   -6.79817   17.41552
       H     0.84752    6.07206   17.44828
       O     1.03701    5.44193   16.71020
      H1     1.31375    4.56702   17.03273
       H     1.57762    2.40807   15.95634
       O     2.20493    2.95744   16.48839
      H1     2.42857    2.37598   17.31418
       H     0.82771   -4.42039   13.23873
       O     0.68658   -4.75422   14.11796
      H1     1.00146   -5.66108   14.21725
       H     6.33011    0.42485   10.86683
       O     5.62273    1.04849   10.94536
      H1     5.06782    0.82175   11.72409
       H    -2.23029   -4.52191   17.49068
       O    -1.78006   -4.35643   16.60875
      H1    -1.72353   -3.40222   16.49130
       H     5.62421    2.38941   17.07026
       O     5.76923    2.93111   17.85812
      H1     6.68663    2.84861   18.12992
       H    -0.39780   -5.86166   17.12619
       O    -0.00429   -6.75886   17.29478
      H1    -0.42544   -7.36150   16.68969
       H     1.01156    2.36772    8.30880
       O     1.98522    2.28051    8.38690
      H1     2.14447    1.35818    8.73615
       H     1.52723   -2.41644   18.25389
       O     1.78788   -2.49320   19.19121
      H1     2.72990   -2.25030   19.32625
       H     1.33834    0.60798   11.34538
       O     1.59233    1.56455   11.35641
      H1     1.77166    1.89671   10.45460
       H     0.28689   -5.59799   11.49487
       O     0.98036   -4.86162   11.35184
      H1     0.60103   -4.29995   10.63215
       H     9.07715    4.13216   14.33825
       O     8.48568    3.82566   14.98203
      H1     8.04875    3.14200   14.45491
       H     8.18171   -1.52900   17.34825
       O     7.42223   -2.16837   17.53075
      H1     7.28633   -2.66908   16.69666
       H     3.51241   -4.04068   17.69372
       O     4.25848   -3.43244   17.58147
      H1     4.72950   -3.38641   18.41950
       H     5.69956   -6.67073   15.07427
       O     5.86353   -6.32371   15.96068
      H1     6.06531   -5.33964   15.79129
       H    -2.04034    2.25905   13.10741
       O    -2.50565    1.53123   12.71996
      H1    -3.07387    1.19704   13.44262
       H     4.12248    1.39483   13.69486
       O     3.97349    0.77207   12.98141
      H1     3.07218    0.98590   12.65661
       H     9.78586   -0.00820   16.08633
       O     9.75887   -0.30304   17.01368
      H1    10.39761    0.34278   17.34412
       H     0.18767    4.80015   11.02492
       O     0.54829    4.11465   11.59943
      H1     0.37904    3.22324   11.29687
       H     1.71115   -5.44960   17.19546
       O     2.09763   -4.73256   16.73332
      H1     1.65809   -4.64021   15.88067
       H     1.95995   -8.11837   15.84160
       O     2.35603   -8.61686   16.58407
      H1     2.59347   -7.96188   17.26629
       H     9.99499   -3.52473   14.66041
       O     9.38225   -3.07409   15.25598
      H1     9.76637   -2.19126   15.43131

