162
frame 8 | Written by MDAnalysis XYZWriter (release 2.4.3)
       H   -15.83539   -6.13481    9.72007
       O   -16.05806   -6.96555    9.22368
      H1   -16.84753   -6.63484    8.75157
       H   -13.77650  -11.90052    8.85963
       O   -14.22999  -12.53590    8.28598
      H1   -14.70768  -12.01203    7.62517
       H   -16.71421  -18.80703   16.58917
       O   -16.72323  -18.33275   15.73980
      H1   -16.44470  -19.01428   15.13419
       H   -12.44302  -12.40801   14.07312
       O   -12.56765  -13.36097   13.86521
      H1   -13.47354  -13.51781   13.53348
       H   -18.03359   -9.78364   11.73488
       O   -18.07998  -10.75739   11.99878
      H1   -18.91659  -10.81061   12.51560
       H   -11.63969  -10.11037   16.89779
       O   -12.20910  -10.25410   17.63906
      H1   -12.55524   -9.35763   17.87973
       H   -16.30649   -5.22051   13.02393
       O   -15.62424   -4.55447   13.17083
      H1   -15.69848   -4.41479   14.13685
       H   -14.82985   -9.20784   15.43615
       O   -15.15150   -9.52344   16.31568
      H1   -14.39432   -9.65149   16.83328
       H   -12.85373   -7.80574    8.73918
       O   -13.62364   -8.38686    8.81746
      H1   -14.28362   -7.85888    9.21865
       H   -15.87748  -14.14757   18.05119
       O   -16.29308  -13.91376   17.21264
      H1   -15.65634  -13.90150   16.51007
       H    -9.70548   -8.48056   16.05967
       O    -9.91871   -9.38973   15.97221
      H1   -10.17604   -9.41780   15.07030
       H   -15.80678  -17.96320   10.72118
       O   -15.91435  -17.64118   11.64058
      H1   -15.09316  -17.86663   12.11574
       H   -17.03252   -8.05767   10.46014
       O   -17.69450   -8.32319   11.08298
      H1   -18.46106   -7.88066   10.71517
       H   -13.26565  -12.37202   17.52372
       O   -13.20621  -12.79053   16.65444
      H1   -13.26012  -13.73167   16.87114
       H    -9.07792   -9.94292   10.29085
       O    -8.38677   -9.99224    9.61203
      H1    -8.36304  -10.89192    9.32056
       H    -8.60330  -12.97494   12.08200
       O    -7.86125  -12.92789   12.69533
      H1    -7.29733  -12.18121   12.38796
       H   -11.60999  -10.20654   11.04868
       O   -10.69035  -10.32770   11.17642
      H1   -10.55033  -11.25534   11.41517
       H   -17.00378  -10.45611   14.22660
       O   -17.34607  -10.66526   15.07815
      H1   -16.63081  -10.54101   15.70422
       H   -17.82296  -10.51682    8.08311
       O   -17.51796   -9.78705    7.57506
      H1   -17.31224   -9.10187    8.20349
       H   -10.64421  -14.15234    7.44032
       O   -10.40540  -14.66050    8.20686
      H1   -11.24427  -14.87953    8.64311
       H   -17.46284   -6.82501   14.05966
       O   -17.73845   -6.54062   13.16469
      H1   -17.34909   -7.20275   12.55635
       H   -12.16529   -9.88299   14.02997
       O   -11.73592  -10.71430   13.71253
      H1   -11.54458  -10.47676   12.81767
       H   -12.09476  -15.43826   15.99379
       O   -12.62813  -15.50871   16.83411
      H1   -12.00640  -15.58398   17.59996
       H   -15.76891  -13.22550    8.57267
       O   -16.64696  -13.61020    8.62196
      H1   -16.68567  -14.06491    9.48777
       H   -15.31870  -12.36446   12.92801
       O   -15.32779  -11.77111   12.16276
      H1   -16.25509  -11.64638   11.90231
       H   -12.47330  -17.05029   11.53436
       O   -12.30391  -17.66370   12.30294
      H1   -11.93192  -17.02985   12.93056
       H   -18.16871  -13.48005    5.99743
       O   -17.94280  -12.58924    5.67051
      H1   -17.13018  -12.31611    6.00830
       H   -15.65276  -14.66854   12.95345
       O   -15.02226  -14.55652   13.72170
      H1   -14.84960  -15.45278   14.05412
       H   -13.45347  -17.57739    6.88178
       O   -13.87784  -16.86390    7.47107
      H1   -14.30725  -17.41485    8.18897
       H   -12.11478   -7.74346   10.82650
       O   -12.64142   -7.88746   11.61094
      H1   -12.85379   -7.06390   12.01386
       H   -14.13382  -11.06656   10.75560
       O   -13.29694  -10.88023   10.30259
      H1   -13.41906   -9.99178    9.94159
       H   -11.42591  -13.28215   16.25313
       O   -10.43940  -13.38727   16.03745
      H1    -9.92906  -12.89639   16.72883
       H   -11.09776  -14.80629   14.38768
       O   -11.20816  -15.70454   14.41462
      H1   -10.34461  -16.09167   14.63089
       H   -16.61040   -7.42508   18.25689
       O   -17.26100   -7.73066   17.56074
      H1   -16.81058   -8.45217   17.08818
       H   -13.66066   -7.25189   16.71931
       O   -13.80892   -6.80022   15.87045
      H1   -14.67103   -6.37861   15.97378
       H   -20.25745  -18.75863   16.02833
       O   -19.71846  -18.22296   15.39192
      H1   -18.80074  -18.30711   15.63091
       H   -11.03484  -13.95737   11.11131
       O   -10.66107  -13.29244   11.72353
      H1   -11.30945  -13.38108   12.46875
       H   -17.01029   -6.64166   16.26677
       O   -16.54801   -6.07838   15.64269
      H1   -16.91250   -5.15975   15.78946
       H   -13.62740  -18.67813   16.16992
       O   -12.73149  -18.30939   16.44929
      H1   -12.96617  -17.37020   16.47937
       H   -17.83575  -12.49891    9.03515
       O   -18.46170  -11.73630    9.29858
      H1   -18.32866  -11.48601   10.22858
       H   -15.05604  -15.93248    6.65280
       O   -15.62227  -15.26295    6.14331
      H1   -15.97346  -14.81335    6.87327
       H   -17.70132  -15.18511   17.49298
       O   -18.47568  -15.69507   17.79089
      H1   -19.17328  -15.57932   17.11664
       H   -10.04440   -7.56502   12.85410
       O    -9.79751   -8.43905   13.21971
      H1   -10.00726   -9.10455   12.58766
       H   -12.22852  -12.64380    7.22024
       O   -11.68158  -12.60908    6.42971
      H1   -12.05439  -13.18598    5.79101
       H   -15.99036  -10.40728    6.59745
       O   -15.48273  -11.15436    6.30497
      H1   -14.73284  -10.73439    5.82843
       H   -17.83191  -11.10596   18.42928
       O   -18.36990  -11.90689   18.41893
      H1   -17.84042  -12.64589   18.06686
       H   -11.44536  -16.83191    9.72395
       O   -12.17563  -16.23921    9.70632
      H1   -12.62025  -16.41601    8.85567
       H   -19.02019  -13.05443   14.17379
       O   -19.41546  -12.40278   14.81436
      H1   -18.64992  -11.71039   14.96615
       H   -12.62019  -19.21844   14.57295
       O   -12.44188  -19.77532   13.80736
      H1   -12.42973  -19.05099   13.10769
       H    -9.74984  -11.16251   17.61321
       O    -9.24701  -11.89570   18.00587
      H1    -8.32458  -11.80955   17.79118
       H   -17.69094  -14.87381   12.56053
       O   -16.96819  -15.07043   11.96989
      H1   -16.88918  -16.03369   11.93585
       H   -13.08335   -6.06901   14.23476
       O   -13.07240   -5.56881   13.44750
      H1   -14.05445   -5.37447   13.40538
       H   -14.62021  -15.90110   15.67959
       O   -14.71132  -16.76993   15.28158
      H1   -15.57157  -17.22323   15.56556
       H   -14.46972   -9.87125   13.05619
       O   -14.46728   -8.90873   13.24588
      H1   -13.86618   -8.57988   12.53919

