162
frame 0 | Written by MDAnalysis XYZWriter (release 2.4.3)
       H    16.98398   13.46554    3.12700
       O    16.45951   13.09319    2.38835
      H1    16.83584   12.22853    2.26136
       H    17.30267    4.84586    6.40557
       O    17.30596    3.97010    6.84108
      H1    16.53380    3.98729    7.49805
       H    16.66686    6.72114    5.07545
       O    17.41722    6.20607    5.11377
      H1    18.25174    6.73900    4.98264
       H    16.63169    8.89924   -6.54252
       O    15.92452    9.33040   -7.02015
      H1    15.61573   10.04942   -6.43879
       H    18.11044   10.24123    0.65080
       O    18.53545   10.49368    1.46308
      H1    19.46017   10.17378    1.23600
       H    14.28369    3.75962    2.27009
       O    15.05959    3.72392    1.69567
      H1    15.36522    2.82312    1.61088
       H    14.16148   15.05807    1.64928
       O    14.05304   14.36483    0.92262
      H1    14.83985   13.86036    1.14155
       H    12.33631    4.62743   -5.89940
       O    12.29860    4.68202   -4.97704
      H1    13.00809    5.32913   -4.71287
       H    14.53896   10.88431   -3.29217
       O    14.94515   11.29538   -4.04637
      H1    14.62125   12.22303   -4.03003
       H    13.86005    8.77027    2.17379
       O    14.52975    8.06800    2.41656
      H1    14.94027    7.83870    1.53623
       H    18.53872   10.47631   -3.96821
       O    17.75027   10.06015   -3.60095
      H1    17.02879   10.69869   -3.70700
       H    15.48560    3.84774   -2.97947
       O    16.26935    3.58093   -3.40666
      H1    16.31152    4.13422   -4.19167
       H    15.20490   12.18414   -0.57464
       O    15.45483   11.64423    0.15226
      H1    14.89020   10.87282    0.02175
       H     9.57054    8.95126   -1.83347
       O     9.73398    9.75623   -1.32213
      H1     9.73039    9.57437   -0.37811
       H    12.39707    3.07584   -0.76974
       O    12.31593    3.99909   -0.84046
      H1    13.18136    4.35651   -0.94144
       H    15.81524    6.01215   -5.68596
       O    16.18257    5.85118   -4.79723
      H1    17.05764    6.21903   -4.87275
       H    12.68022    4.55104    5.08973
       O    12.61289    3.94216    4.33368
      H1    11.64202    3.77620    4.30094
       H     9.46627    7.35033    4.49410
       O    10.29757    6.92546    4.84436
      H1    10.98872    7.05829    4.22326
       H    16.31195    0.75159    1.70037
       O    16.64578    1.40760    1.15706
      H1    17.59076    1.27360    1.08144
       H    10.21593   10.03527    1.81782
       O    10.64279    9.41518    1.17291
      H1    11.45483    9.84494    0.92628
       H    12.92845    6.03617    7.01776
       O    12.70319    6.01048    6.09870
      H1    11.84992    6.49104    5.96898
       H    15.99613    1.30719   -0.55395
       O    15.61698    1.48917   -1.39956
      H1    16.31822    1.88451   -1.97348
       H    15.87534    8.79795    2.86154
       O    16.64133    9.17822    3.38894
      H1    17.43851    9.20850    2.74802
       H    17.90425   10.27323   -1.66325
       O    17.42788   10.05967   -0.84981
      H1    16.75738   10.64412   -0.55628
       H    12.36976   11.34997   -2.20651
       O    12.19732   11.04965   -1.28196
      H1    11.27225   10.81179   -1.23067
       H    11.18219    5.77887    2.01387
       O    11.02424    4.90931    1.65133
      H1    11.56694    4.85374    0.81694
       H    18.66804    9.76748    4.84570
       O    18.52806   10.21687    5.69937
      H1    19.27560   10.87052    5.70348
       H    16.09272    6.80006    8.38156
       O    16.47264    7.38004    7.72260
      H1    16.09438    7.24752    6.87180
       H    18.92821    1.88717    5.02889
       O    18.96033    2.14207    4.10282
      H1    18.30747    2.82956    3.98165
       H    13.60630    1.27691   -1.40630
       O    12.61669    1.37148   -1.31474
      H1    12.28822    0.52822   -1.16762
       H    17.16813   12.68455   -1.41842
       O    16.64005   13.27545   -1.97607
      H1    17.11136   14.16843   -1.96762
       H    11.37176    1.56797    1.83955
       O    10.88502    2.13978    1.21797
      H1    11.14216    3.01130    1.50349
       H    15.16408    8.00654    4.67451
       O    15.01764    7.42136    5.40230
      H1    14.17150    7.01188    5.43872
       H    19.70378    1.87637   -0.33644
       O    19.10979    1.69343   -1.06309
      H1    19.47865    2.06265   -1.85862
       H    12.03115    2.56040   -4.30131
       O    12.38010    1.72357   -3.97014
      H1    12.41851    1.82805   -2.95601
       H    18.30556    4.49729   -2.39316
       O    18.39017    5.30712   -1.93620
      H1    18.32891    6.03818   -2.55002
       H    12.05840    6.52557   -1.76777
       O    11.42982    7.24649   -2.00922
      H1    11.20223    7.11041   -2.94045
       H     9.91495    4.77723   -2.02624
       O    10.37549    4.23948   -2.64160
      H1    11.25135    4.31071   -2.19696
       H    15.69067   11.22303    5.17982
       O    15.05067   11.70389    4.65241
      H1    15.51958   12.10979    3.94414
       H    18.86460    7.37444   -7.01975
       O    18.32886    7.85888   -6.37253
      H1    18.77710    7.56370   -5.56744
       H    11.94849    9.23387   -6.42249
       O    11.52613    8.37725   -6.58664
      H1    11.48064    7.91727   -5.74171
       H    16.61834    3.90767    2.79781
       O    17.47312    4.18624    3.20663
      H1    17.28017    4.97970    3.75886
       H    19.59034    7.64292   -3.43346
       O    18.74297    7.36159   -3.80271
      H1    18.13994    8.07776   -3.57736
       H    11.56859    8.19170    1.90224
       O    11.83518    7.37034    2.36523
      H1    12.77800    7.39761    2.59255
       H    13.91032   14.19280   -3.23283
       O    14.67686   14.01635   -3.71715
      H1    15.31476   13.66263   -3.09849
       H    16.46151    7.28566    0.17498
       O    15.49318    7.27678    0.06777
      H1    15.28387    6.36063   -0.11771
       H    13.49143    8.62052   -1.61388
       O    14.28840    8.88355   -2.05859
      H1    15.08179    8.63862   -1.54996
       H    14.83265    6.39669   -3.98198
       O    13.93304    6.59904   -3.60707
      H1    14.05769    7.40087   -3.10992
       H    13.79545   10.90734    3.32422
       O    13.01075   10.37647    3.04631
      H1    12.60898   10.39517    3.91354
       H    12.73651   13.07087    1.11874
       O    11.85516   12.70064    1.45367
      H1    12.03938   11.97932    2.05170
       H    10.78764    5.83609   -4.82866
       O    10.55434    6.73287   -4.52888
      H1     9.75517    7.02642   -4.99366
       H    15.50937    5.10935   -1.67459
       O    14.83896    4.93114   -0.99368
      H1    15.17927    4.31758   -0.28804
       H    17.42397    5.46230    1.11378
       O    17.89748    6.09797    0.55559
      H1    18.20377    5.56234   -0.25057
       H    10.03999    7.01620   -0.92385
       O     9.33183    6.40577   -0.56051
      H1     8.97246    6.68909    0.33328

