162
frame 10 | Written by MDAnalysis XYZWriter (release 2.4.3)
       H     2.87633   15.92508  -11.70056
       O     2.20539   15.40901  -11.17892
      H1     1.50344   16.07523  -10.98469
       H     2.14233   15.69221  -15.84905
       O     3.05550   15.55557  -16.14926
      H1     3.01568   15.63848  -17.14585
       H     4.79920   18.43464  -15.09748
       O     4.12420   17.85233  -14.74388
      H1     4.00949   17.25165  -15.51220
       H     6.63031    9.86380  -12.77899
       O     7.51538   10.13357  -12.40844
      H1     7.24656   10.47914  -11.47226
       H    12.98723   12.95055  -16.90356
       O    13.80620   13.41335  -16.93897
      H1    14.34202   13.07606  -16.19876
       H     9.25479   13.31579  -11.27726
       O     8.74647   13.55278  -12.03850
      H1     8.93036   12.98653  -12.81011
       H     6.57856   16.46542  -18.48656
       O     6.01978   17.15202  -18.80074
      H1     6.37295   17.99431  -18.44109
       H     5.42597   16.23432  -11.13703
       O     4.67601   16.55888  -11.70778
      H1     5.03665   17.19374  -12.31197
       H     0.93129   15.55012  -13.65008
       O     0.84292   15.53595  -14.62660
      H1     0.89633   14.61185  -14.86809
       H    11.16111   14.70160  -19.51002
       O    10.17136   14.70129  -19.55086
      H1     9.88450   14.70362  -18.65859
       H     2.42797   13.85564  -12.09963
       O     2.40153   12.91660  -12.28477
      H1     2.19421   12.74307  -13.23292
       H     5.13466   15.58060  -14.06731
       O     5.58535   14.79486  -14.38465
      H1     5.03224   14.54435  -15.12154
       H     6.05834   20.04769  -13.08004
       O     6.63301   19.31695  -13.30780
      H1     7.49071   19.72322  -13.09188
       H    12.69381   18.87125  -12.70256
       O    12.41292   18.22184  -12.06103
      H1    12.11639   17.55782  -12.68514
       H     0.11704   18.30540  -14.47369
       O    -0.63089   18.45803  -15.05513
      H1    -0.84991   17.61613  -15.41823
       H    12.17172   17.05394  -19.63475
       O    11.71247   16.86616  -18.78869
      H1    10.90818   16.36560  -19.06075
       H    10.40120   13.10446   -9.22638
       O    10.51127   12.89300  -10.14699
      H1     9.98094   12.13512  -10.30802
       H     8.77370   16.89556  -11.92321
       O     8.80386   16.34449  -12.72474
      H1     8.74268   15.48360  -12.37644
       H    12.68046   18.03565   -8.81824
       O    12.56087   18.74222   -9.43566
      H1    12.31839   18.39748  -10.28869
       H     9.85551   17.74453  -10.62758
       O     9.25373   18.41949  -10.95368
      H1     9.71532   19.16867  -11.33556
       H     6.47375    9.84946  -16.28272
       O     7.06405    9.49737  -15.57222
      H1     7.77306   10.13805  -15.55401
       H     7.77417   15.42175   -9.81806
       O     7.06384   15.25556  -10.45450
      H1     7.49522   14.66409  -11.05522
       H     5.73244   13.53883  -12.88047
       O     5.34936   13.04847  -12.11386
      H1     4.43341   13.30062  -12.18029
       H     1.63229   17.91203   -9.91313
       O     1.13922   17.84686  -10.74462
      H1     0.29808   18.22523  -10.57506
       H     6.97215   17.35700  -14.57565
       O     7.03108   16.98634  -15.47181
      H1     6.64779   16.14415  -15.36774
       H     2.64904   18.07639  -13.76964
       O     1.66967   18.27637  -13.48944
      H1     1.73078   17.99125  -12.52613
       H     4.35090   16.55772   -7.77938
       O     5.06772   16.07131   -7.44109
      H1     5.67957   16.82952   -7.10133
       H    13.92886   18.93233  -17.06549
       O    13.38713   19.70486  -16.81342
      H1    12.43876   19.49839  -16.83767
       H    10.13152   16.80508  -16.53704
       O     9.41560   16.24285  -16.79383
      H1     8.63673   16.63442  -16.40038
       H     6.45473   13.25215  -17.51170
       O     7.12730   13.25082  -18.20530
      H1     7.93629   13.44110  -17.69418
       H     6.48254   19.65010   -9.70614
       O     7.38067   19.50308   -9.33287
      H1     7.92521   19.11309  -10.06224
       H     9.32323   14.39922  -16.37439
       O     9.28717   13.40497  -16.48414
      H1     8.95280   13.00791  -15.62269
       H    11.02884   15.89098   -9.61166
       O    10.07295   16.19858   -9.61601
      H1     9.86614   16.57109   -8.74897
       H    12.76197   15.12390  -16.40962
       O    12.46281   15.99950  -16.27967
      H1    12.35507   16.31762  -17.18662
       H    11.25547   16.11922  -14.66929
       O    11.20029   16.47353  -13.82327
      H1    10.26885   16.40225  -13.54951
       H     5.89602   20.40040  -15.67583
       O     5.76643   19.53899  -16.14790
      H1     6.50447   18.91777  -16.00707
       H     3.89511   13.29419  -16.83286
       O     4.71575   12.86507  -16.53666
      H1     4.40908   12.12105  -15.99182
       H    10.54907   20.20009  -19.05788
       O    10.07348   19.36689  -18.81442
      H1    10.41357   18.73906  -19.48766
       H    11.96021   11.78209  -13.20578
       O    11.25079   12.39812  -13.04358
      H1    11.11347   12.36516  -12.09825
       H    10.22058   19.31859  -15.44390
       O    11.05095   19.34612  -14.97357
      H1    11.14095   18.47024  -14.54411
       H     2.70655   16.71946  -18.77588
       O     3.38770   16.02057  -18.81091
      H1     4.20112   16.53505  -18.92670
       H     6.87580   11.11402   -9.14335
       O     6.45498   11.07299  -10.01835
      H1     6.56002   11.93877  -10.35529
       H     0.65055   13.23402   -9.73701
       O     1.30117   13.56556   -9.08890
      H1     1.98156   13.87339   -9.76508
       H     0.54385   17.48796  -17.58136
       O     1.25576   17.82231  -18.17196
      H1     1.72470   18.51222  -17.68619
       H     2.00516   17.84357   -7.50763
       O     2.65749   17.86466   -8.22322
      H1     3.12443   18.60797   -7.94335
       H     7.05964   18.70026   -7.62942
       O     7.05270   18.22242   -6.80278
      H1     6.79218   18.75447   -6.02893
       H     1.19790   12.63967  -15.78746
       O     1.04850   12.81231  -14.80260
      H1     0.46509   12.04175  -14.63819
       H     4.39809   11.90540  -13.52200
       O     4.38361   11.25975  -14.24319
      H1     4.94810   10.58780  -13.94547
       H    10.20586   17.75513   -6.43271
       O     9.70339   17.65823   -7.24508
      H1     8.76166   17.77309   -6.93412
       H    11.80428   14.24896  -10.69162
       O    12.27694   15.06603  -10.85971
      H1    11.83655   15.45146  -11.60029
       H    13.68209   18.72549  -15.01220
       O    13.84698   18.00768  -14.44594
      H1    13.65207   17.21204  -14.99565
       H    10.72380   12.52975  -16.69340
       O    11.43184   11.89686  -16.71686
      H1    11.14891   11.21726  -17.34638
       H     1.35864   13.25419  -18.00569
       O     1.91724   12.78514  -17.37772
      H1     2.41373   12.11853  -17.82757
       H     9.77461   11.67517  -14.09125
       O     8.81325   11.59851  -14.37199
      H1     8.36780   11.07341  -13.68482

