162
frame 10 | Written by MDAnalysis XYZWriter (release 2.4.3)
       H     0.43037   14.03032   -1.49812
       O    -0.38191   13.66587   -1.89812
      H1    -0.96378   14.44577   -1.97443
       H     2.73493    9.43099   -3.01649
       O     2.50953    9.56159   -3.97438
      H1     3.12410    8.91968   -4.46111
       H     3.32927   14.80008   -5.25236
       O     4.14767   15.20777   -4.92386
      H1     4.60290   15.56618   -5.69265
       H     7.85796    9.18133   -2.09526
       O     6.98428    8.83327   -2.36450
      H1     6.87045    9.10627   -3.28131
       H    -0.50639    8.77492   -6.07831
       O    -0.47536    8.38656   -6.95041
      H1    -0.97989    9.05278   -7.45643
       H     9.26541   12.97452   -7.35559
       O    10.17175   13.33690   -7.29149
      H1    10.05692   14.20584   -6.93949
       H     7.92940   13.81015   -5.11666
       O     8.60594   13.99085   -4.40689
      H1     8.23077   14.67305   -3.83847
       H     4.24792    6.97905   -4.37678
       O     4.02036    7.63171   -5.02358
      H1     3.96292    7.20415   -5.89089
       H     5.85266   11.65772   -1.07984
       O     5.41284   10.81930   -1.38626
      H1     6.13221   10.18882   -1.50610
       H    11.40349   12.32773   -3.30083
       O    10.45612   11.94721   -3.40574
      H1     9.90323   12.74129   -3.41573
       H     5.64539    5.92033   -2.24146
       O     4.80403    5.72374   -2.70815
      H1     4.21663    5.68207   -1.97032
       H     3.39724    9.95463  -10.16283
       O     4.16347    9.67884  -10.68635
      H1     4.93922   10.21485  -10.35170
       H     7.50725    9.05304    0.56965
       O     7.59485    8.24114    1.06948
      H1     8.45969    7.92292    0.87950
       H     1.72339   16.51254   -1.40074
       O     1.48553   15.68588   -1.07092
      H1     0.74952   15.81462   -0.47314
       H     0.67448   14.35217   -6.05636
       O     0.24822   14.84033   -6.77066
      H1     0.40414   14.40015   -7.58017
       H     1.41919    6.60991   -8.64668
       O     1.70258    7.55042   -8.78509
      H1     1.23612    8.12017   -8.14523
       H     1.60915    4.52781   -1.81543
       O     1.32722    3.60190   -2.01246
      H1     1.38053    3.59597   -3.00884
       H     1.93501   10.66887   -5.32471
       O     1.82915   11.18530   -6.13468
      H1     0.88739   11.34370   -5.96315
       H    -0.47441   11.89916   -2.54726
       O    -0.89849   11.24498   -3.17274
      H1    -1.85250   11.20007   -2.88913
       H     3.61374    8.71195   -0.64652
       O     2.80966    8.75920   -1.20705
      H1     2.45340    7.85240   -1.23185
       H     4.35090   16.55772   -7.77938
       O     5.06772   16.07131   -7.44109
      H1     5.67957   16.82952   -7.10133
       H     8.88658   14.65568   -0.39698
       O     8.91787   14.06264   -1.17086
      H1     9.36738   13.26951   -0.88955
       H     0.45113   12.80759    0.93776
       O     0.96775   12.06513    0.55762
      H1     1.48644   12.48852   -0.15575
       H     5.67543    7.84844    0.80602
       O     4.78925    7.59361    0.51508
      H1     4.29173    7.87132    1.30143
       H     5.00679   11.04529   -2.94728
       O     4.92121   10.90053   -3.87355
      H1     4.07783   10.43447   -4.06582
       H    -1.61611   11.06218   -6.35377
       O    -1.17649   11.89905   -6.25923
      H1    -1.42560   12.33112   -7.11610
       H     6.31017   14.48085   -7.02941
       O     6.48283   13.87081   -6.25154
      H1     5.66630   13.84164   -5.79370
       H     6.27893    2.70998   -3.18919
       O     6.18881    3.26142   -3.96226
      H1     5.78394    4.03594   -3.56510
       H    10.17696    9.15141   -6.41936
       O    10.08941    9.47371   -7.35325
      H1     9.62716    8.80507   -7.92698
       H     8.13190    6.37101   -6.33438
       O     8.53311    5.71870   -6.91346
      H1     9.51585    5.67994   -6.76491
       H     8.61856    6.96043   -8.23556
       O     8.62784    7.80278   -8.66278
      H1     7.71312    8.13608   -8.46054
       H     6.49494    9.45694   -6.16164
       O     7.11263    9.92566   -5.57632
      H1     6.55504   10.34831   -4.94455
       H     6.87580   11.11402   -9.14335
       O     6.45498   11.07299  -10.01835
      H1     6.56002   11.93877  -10.35529
       H    10.15535   10.69677   -2.22164
       O     9.55330   10.17880   -1.64756
      H1    10.06565    9.47591   -1.11277
       H    -1.20316    9.70744    0.86473
       O    -1.34666   10.42001    0.25181
      H1    -0.47872   10.74406    0.04219
       H     1.38139    6.89763   -2.46744
       O     1.25956    6.31535   -1.67990
      H1     0.50829    6.70733   -1.26398
       H    -1.16876    8.87200   -1.18008
       O    -0.98010    8.13239   -1.82225
      H1    -0.67491    8.57965   -2.64639
       H     2.19101   11.22931    2.83653
       O     2.94398   11.53676    2.32344
      H1     2.61057   11.72251    1.41656
       H     0.65055   13.23402   -9.73701
       O     1.30117   13.56556   -9.08890
      H1     1.98156   13.87339   -9.76508
       H     5.49004    9.10263   -8.63852
       O     6.01848    8.61660   -7.95011
      H1     5.43511    7.92533   -7.70401
       H     3.25492   15.17534   -1.80544
       O     4.14283   14.84237   -2.09567
      H1     4.08863   14.87449   -3.05066
       H     6.29481    7.14789   -5.24497
       O     7.29578    7.12506   -5.04049
      H1     7.55754    8.02362   -5.03898
       H     1.30946   13.63248   -3.85563
       O     1.71812   13.65079   -4.71126
      H1     2.32950   12.89204   -4.70775
       H     3.50507    4.65379    0.62053
       O     4.18654    5.01859    0.01264
      H1     4.39147    5.91680    0.16761
       H     7.41014    7.08056   -2.19112
       O     7.40834    6.15835   -2.43472
      H1     7.37481    6.11880   -3.40998
       H     7.45989   12.49628   -6.85271
       O     7.93199   11.95055   -7.46876
      H1     8.21825   11.16997   -6.99945
       H     6.73959   11.67309    1.86329
       O     6.02995   10.95911    1.72895
      H1     5.43536   11.34338    1.08486
       H     3.68790   11.77354   -1.07615
       O     2.92197   12.33254   -1.14026
      H1     3.27659   13.21681   -1.31317
       H    -3.34722   13.59134   -3.80794
       O    -2.50140   13.76090   -4.28356
      H1    -1.96118   12.94127   -4.28482
       H     5.73447   13.90517   -1.24310
       O     6.35298   13.29945   -0.76378
      H1     7.22616   13.67582   -0.91610
       H     2.10901   10.81568   -7.94219
       O     2.27493   10.82703   -8.88923
      H1     2.07634   11.73878   -9.06177
       H     4.08284    6.05304   -8.31663
       O     4.03987    6.79633   -7.75102
      H1     3.26068    7.28335   -8.07390
       H     0.88451    9.20807   -4.10148
       O    -0.03675    8.93546   -4.20595
      H1    -0.44718    9.75153   -4.03293
       H    10.30841    8.16404   -4.41414
       O    10.46372    9.04068   -4.81178
      H1    10.13708    9.75141   -4.31597

