162
frame 11 | Written by MDAnalysis XYZWriter (release 2.4.3)
       H    18.43580  -13.43397   -6.40247
       O    18.38109  -13.44880   -7.39600
      H1    17.98404  -12.63342   -7.75115
       H    19.03330  -15.21064   -7.49783
       O    19.43669  -16.09390   -7.64828
      H1    18.87108  -16.38103   -8.35386
       H    19.34476  -16.75426   -2.30280
       O    18.67807  -16.11927   -2.53055
      H1    18.10414  -16.68949   -3.07670
       H    16.20442  -15.16729    0.34047
       O    16.56470  -14.47807   -0.27180
      H1    16.46355  -14.77725   -1.15668
       H    19.23688   -9.09198   -7.15435
       O    18.43807   -9.32790   -6.62024
      H1    18.84641   -9.68796   -5.80171
       H    10.21183  -13.22533   -2.66776
       O     9.77339  -12.35818   -2.62244
      H1    10.33150  -11.72243   -3.13507
       H    17.85589  -14.17783    0.53064
       O    18.67788  -14.00973    1.00805
      H1    18.48086  -14.07068    1.94647
       H    13.47481   -9.22114   -0.56684
       O    13.03727   -8.81215   -1.41757
      H1    12.99329   -9.58419   -2.04941
       H    12.09503  -14.94430   -6.30308
       O    12.02230  -14.97356   -5.32340
      H1    12.79167  -14.48478   -5.04924
       H    13.37317   -7.63513   -8.28345
       O    13.39360   -8.30554   -7.57398
      H1    14.35360   -8.44795   -7.38999
       H    17.33950  -10.85702    0.64748
       O    17.05886  -10.23454    1.35711
      H1    16.14423  -10.52417    1.45642
       H    13.17427  -18.31290   -5.87875
       O    12.30325  -18.75312   -5.89620
      H1    11.67546  -18.19267   -6.32425
       H    17.32306   -6.88188   -4.73616
       O    18.04109   -6.44169   -4.32821
      H1    17.71510   -5.72595   -3.85087
       H    13.48693  -13.25859    1.35339
       O    13.92929  -12.99682    0.49937
      H1    14.70621  -13.52604    0.50456
       H     8.75510  -13.04681   -4.12700
       O     8.29555  -13.89637   -4.27874
      H1     8.38320  -14.15419   -5.23898
       H     9.92084  -10.26903   -4.22330
       O    10.74680  -10.76593   -4.35210
      H1    11.04296  -10.39958   -5.20361
       H    16.91210  -12.61066   -3.44335
       O    16.71659  -12.19904   -2.60792
      H1    15.77222  -11.92470   -2.56982
       H    13.99499  -11.07638    0.46414
       O    13.95267  -10.19881    0.82046
      H1    13.35960  -10.25886    1.53401
       H    14.98318  -17.07512   -6.46081
       O    14.86293  -17.97307   -6.10042
      H1    15.68241  -18.46584   -6.41955
       H    14.69750  -18.79346   -0.68602
       O    14.68676  -17.81002   -0.78058
      H1    15.13363  -17.47623    0.05913
       H    12.82973  -13.34781   -0.65943
       O    12.19313  -13.50617   -1.41409
      H1    12.12301  -14.47410   -1.59537
       H    14.03985  -10.98074   -8.50180
       O    14.95186  -10.78436   -8.11499
      H1    15.45053  -11.54653   -8.51431
       H    19.32404  -17.03066   -6.18230
       O    19.11434  -17.68657   -5.39327
      H1    19.33186  -17.20386   -4.58877
       H    14.68150   -8.33094   -2.52142
       O    15.58626   -8.51663   -2.92521
      H1    16.11157   -8.33175   -2.12761
       H    15.49110  -10.18454   -4.93906
       O    15.89178  -10.90152   -5.41470
      H1    15.54439  -10.78478   -6.33294
       H    12.17289  -10.50863   -9.87426
       O    12.67297  -11.26279   -9.50255
      H1    12.76221  -11.91322  -10.18636
       H    11.79050   -7.54446   -1.63101
       O    11.31700   -6.69547   -1.77402
      H1    11.06030   -6.68896   -2.68704
       H    10.58899  -17.14856   -8.21976
       O    10.89907  -16.40695   -7.66025
      H1    10.04684  -15.91755   -7.43680
       H     8.82027  -11.09259   -8.54496
       O     9.35096  -11.87002   -8.44132
      H1     8.87931  -12.56111   -9.01849
       H    14.48911  -15.49443   -9.79540
       O    13.51990  -15.33335   -9.72272
      H1    13.39813  -14.61718   -9.07283
       H    15.28446  -15.88575   -3.63466
       O    14.95209  -15.08172   -3.19820
      H1    13.98647  -15.21335   -3.05645
       H    13.07560   -7.08798   -5.43307
       O    12.15333   -7.33723   -5.35568
      H1    12.05202   -7.89456   -6.13644
       H    16.02841   -9.14624   -8.45658
       O    16.11267   -8.20673   -8.27406
      H1    16.51219   -8.17279   -7.36270
       H    15.60374  -14.60702   -6.15085
       O    16.00289  -15.27687   -6.71765
      H1    16.77417  -14.77384   -7.10157
       H    15.35683   -8.02476   -4.61030
       O    15.61635   -8.00933   -5.52251
      H1    15.74876   -7.11157   -5.73336
       H    13.52888  -14.18729  -11.04702
       O    13.56499  -13.28831  -11.36947
      H1    14.19004  -13.34724  -12.09105
       H    10.06110  -16.25815   -4.94115
       O     9.61272  -16.30947   -4.10477
      H1     9.03530  -15.55812   -4.09168
       H    15.04507  -12.46593   -5.16241
       O    14.54286  -13.33513   -5.16273
      H1    14.80867  -13.83469   -4.38255
       H    11.26295  -16.17934   -3.19137
       O    11.89982  -16.01603   -2.49411
      H1    11.91676  -16.92823   -2.10016
       H    15.14634  -10.38505  -12.04215
       O    14.98552   -9.92311  -11.24823
      H1    15.26540  -10.47800  -10.53449
       H    15.41604  -16.19049  -11.53250
       O    15.90927  -15.81168  -10.76040
      H1    16.27545  -16.53604  -10.24383
       H    18.61884   -8.00769   -1.88819
       O    18.98327   -8.43690   -2.65034
      H1    18.71646   -7.77693   -3.36771
       H    15.91536   -8.33307  -11.07215
       O    16.23140   -7.44484  -10.82711
      H1    16.25965   -7.53033   -9.83358
       H    18.71485  -12.36648   -4.39908
       O    18.48736  -13.32780   -4.57459
      H1    19.13968  -13.78111   -4.07574
       H    17.93115  -10.58652   -7.96512
       O    17.60718  -11.10766   -8.68981
      H1    18.29545  -11.28800   -9.37828
       H    17.60006  -10.76567   -4.69388
       O    18.51772  -10.64916   -4.51568
      H1    18.52110   -9.96825   -3.80134
       H    17.76650   -7.20347   -0.28610
       O    17.05711   -7.83004   -0.42658
      H1    17.16606   -8.52526    0.20179
       H    11.86631   -9.60609   -7.51819
       O    11.06177   -9.93559   -7.16956
      H1    10.80450  -10.63751   -7.82812
       H     9.31971  -12.85176    0.35277
       O     9.64075  -13.74557    0.20945
      H1    10.32461  -13.60048   -0.49870
       H    15.44655  -17.86769   -4.46574
       O    16.04462  -17.78883   -3.69445
      H1    15.45305  -17.88264   -2.88036
       H     7.81861  -15.15534   -7.16513
       O     8.65631  -14.85990   -6.78216
      H1     8.86716  -13.95175   -7.08759
       H    12.60178  -12.00095   -2.51890
       O    12.80080  -11.11224   -2.82384
      H1    12.05162  -10.90993   -3.42830
       H    18.10949  -12.03165   -1.29703
       O    18.55569  -11.68974   -0.51402
      H1    18.66798  -12.50487    0.00441
       H    10.54050   -7.48744   -4.52643
       O     9.77975   -7.07016   -4.09044
      H1     9.48935   -6.33700   -4.63733

