162
frame 4 | Written by MDAnalysis XYZWriter (release 2.4.3)
       H     9.20507    4.76990   -8.85001
       O     9.97043    5.23669   -8.61650
      H1     9.79160    5.42658   -7.69162
       H     7.87670    9.26026  -12.55114
       O     8.20807   10.10641  -12.44731
      H1     8.49536   10.06651  -11.50722
       H    12.96757    9.79220  -15.55962
       O    12.67641   10.76530  -15.60874
      H1    13.52643   11.17917  -15.48470
       H     9.70002   14.35068  -12.62363
       O     9.22519   14.75617  -13.42620
      H1     8.71694   14.06127  -13.87372
       H    14.11517   11.82008  -11.64800
       O    14.76207   12.41236  -12.04744
      H1    14.46969   13.29273  -11.74625
       H    13.87371    7.45126  -15.47914
       O    13.79602    8.37341  -15.76914
      H1    13.38827    8.31032  -16.67382
       H    13.19453    4.75798  -13.05247
       O    13.45236    4.32302  -12.24944
      H1    12.91176    4.88557  -11.68987
       H    11.40028   12.54797  -11.52699
       O    10.77150   13.12195  -11.96396
      H1    10.54577   12.57534  -12.74546
       H    12.23671   10.63797  -11.24138
       O    12.69918   11.38255  -10.91302
      H1    12.60863   11.25731   -9.94881
       H     3.40273    9.23177  -11.65268
       O     4.31990    9.12971  -11.51931
      H1     4.68057   10.07469  -11.51803
       H     8.52152    8.18568  -16.93128
       O     9.42787    8.51961  -16.89516
      H1     9.54878    9.17938  -17.58699
       H    11.84737    5.75647  -14.46003
       O    12.81371    5.62693  -14.53442
      H1    12.85145    5.24381  -15.41771
       H    12.83310    8.38387  -12.49617
       O    11.94496    8.72797  -12.23115
      H1    11.65142    8.04819  -11.53899
       H     4.62171    9.21963  -16.33504
       O     4.73153    8.52355  -16.99797
      H1     4.78776    9.06287  -17.80341
       H     7.87569   12.59187  -15.64166
       O     7.86963   13.56112  -15.58459
      H1     7.05725   13.94256  -16.02338
       H     6.30841    3.27641  -12.83440
       O     6.39329    2.61178  -13.54691
      H1     7.22224    2.14066  -13.38500
       H     9.71363    4.39133  -14.31849
       O     9.80750    4.83801  -13.49341
      H1     9.57677    5.72546  -13.65974
       H     8.28798    3.37632  -16.03985
       O     9.05099    3.04454  -15.59384
      H1     8.72164    2.60554  -14.80959
       H    15.52433    9.68478  -15.99850
       O    16.25422   10.32142  -15.97543
      H1    16.66786   10.38542  -16.86256
       H     4.75171    4.63190  -12.55865
       O     4.98876    4.19524  -11.71743
      H1     4.19871    3.95398  -11.19763
       H     7.13894    6.03139   -9.94047
       O     7.24304    5.36898  -10.68531
      H1     6.40080    5.01020  -10.96842
       H     9.96383    8.52494   -9.39436
       O     9.56754    8.31712  -10.25768
      H1     9.53908    7.33958  -10.31127
       H    15.47550   11.79871  -15.11092
       O    14.96739   12.56190  -14.88246
      H1    14.74438   12.46141  -14.00574
       H     5.78754   13.59082  -18.77690
       O     6.34627   12.99343  -19.26371
      H1     7.22105   13.00307  -18.84239
       H     9.12393   13.90986  -18.87218
       O     9.01882   13.25119  -18.17728
      H1     8.70712   13.65360  -17.38119
       H     7.90419    5.96316  -19.36279
       O     8.62381    5.53572  -18.81597
      H1     9.46779    5.94352  -18.95574
       H     8.50413    2.14172  -19.16095
       O     8.59807    2.86336  -19.83560
      H1     8.54574    3.67929  -19.32384
       H     9.09836   10.78053  -19.51643
       O     9.87338   10.25965  -19.27168
      H1    10.67346   10.80675  -19.25900
       H    15.13891    4.55544  -17.64905
       O    14.99242    5.56143  -17.54594
      H1    15.30674    5.97588  -18.34781
       H    10.31334    2.84542  -11.01179
       O    10.73239    2.97068  -11.88894
      H1    10.25110    3.67463  -12.32468
       H     7.60054    5.04456  -17.44596
       O     7.06406    4.52286  -16.82225
      H1     6.78564    5.18760  -16.16358
       H     7.14462    1.96732   -9.98888
       O     7.91427    2.51471   -9.78560
      H1     7.64712    3.42661   -9.88219
       H    15.28153    8.41242  -11.09286
       O    15.02484    7.92169  -11.90767
      H1    15.69887    8.23620  -12.53602
       H    11.18788   10.85262  -14.49576
       O    10.33021   11.20043  -14.04472
      H1    10.00782   10.50466  -13.45283
       H     7.03594    6.23385   -7.77649
       O     7.42292    6.90244   -8.38077
      H1     6.60768    7.40044   -8.66171
       H    11.15896    5.59725   -9.94563
       O    11.85246    5.80519  -10.61013
      H1    12.53077    6.16259  -10.01256
       H     9.62699    7.96598  -15.04133
       O     9.66880    7.59666  -14.13278
      H1    10.56837    7.79600  -13.81440
       H     6.54926   11.41370  -12.55110
       O     5.61495   11.61582  -12.46547
      H1     5.60565   12.57344  -12.22444
       H     8.67806    0.19729  -12.38300
       O     8.90935    0.96300  -12.93747
      H1     9.56868    1.41643  -12.32896
       H    16.43623    3.33099  -13.96356
       O    15.74344    3.07070  -14.58169
      H1    14.94964    3.57906  -14.60010
       H     4.57812   11.12106  -18.55914
       O     4.48305   10.25635  -18.97185
      H1     5.30751   10.24715  -19.54807
       H    12.02302    2.23884  -16.30328
       O    11.94391    3.12703  -15.86891
      H1    10.95452    3.24275  -15.99435
       H     4.61014    8.46908   -9.89184
       O     4.68905    8.02661   -9.02145
      H1     3.91469    7.44832   -8.92366
       H     5.00547    4.27187  -17.02156
       O     4.11290    4.17879  -16.60702
      H1     3.49101    4.57128  -17.22764
       H     6.20275   10.90773  -15.49870
       O     5.25779   10.76223  -15.26588
      H1     5.14366   10.78292  -14.35543
       H    16.24711    6.40807  -16.72554
       O    17.02759    6.82459  -16.28099
      H1    16.70336    7.30635  -15.53728
       H     6.10670    7.43593  -15.87569
       O     6.50657    6.72499  -15.32869
      H1     6.92588    7.17690  -14.61762
       H     6.94107    6.93838  -11.57907
       O     6.60435    7.61239  -12.17056
      H1     5.64608    7.61873  -12.09599
       H    12.31374    9.38103  -18.30330
       O    12.85607    8.59842  -18.28408
      H1    12.26333    7.86910  -18.46341
       H    10.82933   12.49109  -18.09707
       O    11.72838   12.04878  -18.14278
      H1    12.03153   11.97741  -17.23440
       H    15.72886    6.17818  -12.03848
       O    16.02344    5.26948  -11.96373
      H1    15.22274    4.77585  -12.05511
       H    12.15661    1.97652  -14.60882
       O    12.13853    1.38813  -13.81343
      H1    11.75622    1.98417  -13.18035
       H     8.88288   10.85113  -15.13957
       O     8.12892   10.92472  -15.74415
      H1     8.32645   10.27713  -16.44297
       H     3.98812    4.75790  -14.87504
       O     4.26139    5.28754  -14.12530
      H1     4.80906    6.00942  -14.48487

