162
frame 5 | Written by MDAnalysis XYZWriter (release 2.4.3)
       H   -10.12768   -1.40265  -11.20298
       O   -10.30945   -0.54196  -11.60553
      H1   -10.99983   -0.56108  -12.24362
       H   -17.61661   -2.84183  -11.64874
       O   -17.22362   -2.84538  -12.56068
      H1   -17.16815   -3.81005  -12.74047
       H   -15.99829   -8.52016   -2.80774
       O   -15.50437   -7.91319   -2.17695
      H1   -14.98059   -7.34571   -2.81989
       H   -17.29156   -4.77960   -6.47059
       O   -17.48781   -5.01305   -5.58184
      H1   -18.33939   -4.64962   -5.38203
       H    -9.83939   -1.77681   -9.00685
       O    -8.98921   -2.09876   -9.21502
      H1    -8.55077   -1.26275   -9.31214
       H   -16.82108   -6.37544  -13.97665
       O   -17.40689   -5.66965  -13.65071
      H1   -18.13952   -6.06494  -13.09604
       H   -10.11991  -10.10585  -13.45294
       O   -10.90911  -10.50044  -13.83833
      H1   -10.67013  -11.32094  -14.23363
       H   -15.39038   -2.54671  -12.22233
       O   -14.50893   -2.96518  -11.97031
      H1   -14.77561   -3.86697  -11.76926
       H   -11.77200   -4.60159  -11.12066
       O   -12.00995   -5.02837  -10.24364
      H1   -12.06310   -4.22893   -9.71436
       H   -14.07902   -9.96936  -12.07939
       O   -14.67731   -9.75397  -12.80154
      H1   -14.77601   -8.83810  -13.05270
       H   -14.80114   -5.08524   -4.18070
       O   -15.54740   -4.45699   -3.98693
      H1   -16.28433   -4.70442   -4.63816
       H   -19.65993   -3.69493  -10.51678
       O   -18.70716   -3.53240  -10.53583
      H1   -18.32110   -3.69830   -9.65573
       H    -8.17671   -6.52791   -4.40393
       O    -8.24764   -6.08314   -3.56796
      H1    -9.24252   -5.92789   -3.45418
       H   -15.04564   -1.17938   -8.78203
       O   -14.90887   -2.02075   -9.28647
      H1   -14.77277   -1.71175  -10.18807
       H    -7.43632   -4.42537  -10.57509
       O    -6.80920   -4.74226   -9.89315
      H1    -7.09440   -5.60066   -9.67932
       H   -10.47926  -11.86046   -9.88064
       O   -10.52589  -11.60460   -8.98100
      H1   -10.28992  -12.41554   -8.46265
       H    -7.83878   -4.55016   -4.56804
       O    -7.76001   -3.91642   -5.32122
      H1    -7.06435   -4.16222   -5.92333
       H   -15.71915   -2.58483   -5.00539
       O   -15.82048   -1.71184   -5.34290
      H1   -14.96081   -1.48508   -5.73447
       H   -16.72727   -4.76077   -9.12088
       O   -16.89820   -4.09304   -8.43791
      H1   -16.21774   -3.42147   -8.63335
       H   -16.64072  -10.06388   -9.49159
       O   -16.56336  -10.45661  -10.36366
      H1   -16.19420   -9.91274  -11.01952
       H   -12.45320  -10.18904  -10.40524
       O   -12.98788   -9.38966  -10.55170
      H1   -13.35221   -9.21733   -9.69202
       H    -9.20323   -5.73075   -6.54722
       O    -8.76069   -6.56897   -6.35251
      H1    -7.92857   -6.53929   -6.89459
       H   -13.14916   -2.35277  -12.87520
       O   -12.33389   -2.01395  -13.31116
      H1   -12.58285   -1.28367  -13.88864
       H   -17.38851   -7.08218   -8.80270
       O   -17.48455   -7.67861   -8.01492
      H1   -18.32228   -7.40787   -7.60689
       H   -10.11811   -6.89284  -10.60280
       O    -9.81906   -7.16709  -11.50698
      H1   -10.57796   -7.70898  -11.76305
       H   -12.93153   -1.53740   -5.30840
       O   -13.11597   -1.29279   -6.22236
      H1   -13.10373   -0.31566   -6.13670
       H   -15.39625   -7.35390  -15.14077
       O   -15.87895   -7.73151  -14.38856
      H1   -16.68054   -8.10994  -14.81871
       H   -14.55869   -8.10642   -6.17087
       O   -13.99045   -8.63573   -5.58369
      H1   -13.19460   -8.58254   -6.14997
       H    -7.14846   -8.32073  -10.23792
       O    -7.30619   -7.68562   -9.55716
      H1    -6.44952   -7.52333   -9.14106
       H   -11.57089   -3.61097  -13.11244
       O   -11.07592   -4.40273  -12.80585
      H1   -11.46832   -5.12960  -13.33094
       H   -12.97606   -6.96159   -8.61153
       O   -13.03570   -7.21804   -7.65257
      H1   -12.08747   -7.55103   -7.42168
       H   -12.03413  -10.46631   -5.85648
       O   -11.51307  -10.22922   -5.02474
      H1   -12.12813  -10.34345   -4.27102
       H   -10.90581   -8.91161   -5.87451
       O   -10.89678   -8.07327   -6.41946
      H1   -10.04895   -7.62885   -6.29283
       H   -16.85012   -9.69586   -5.21557
       O   -16.63300   -9.78357   -4.24830
      H1   -17.49875   -9.81373   -3.78708
       H   -11.40791   -5.14051   -4.47021
       O   -11.08535   -5.54933   -3.61250
      H1   -11.39255   -4.94811   -2.93224
       H    -8.18335   -9.41803   -5.90347
       O    -7.76555   -9.70139   -5.04519
      H1    -7.97725  -10.60285   -4.85103
       H   -11.38631  -11.32357  -12.56137
       O   -11.82535  -11.77814  -11.77522
      H1   -11.44312  -12.66158  -11.44568
       H   -10.00733   -0.66441   -6.33488
       O   -10.53254   -0.64241   -7.10184
      H1   -11.43491   -0.89866   -6.88727
       H   -13.99866  -10.08313   -3.54749
       O   -13.36450  -10.57063   -2.99951
      H1   -13.91177  -11.39846   -2.84933
       H   -12.45817   -8.59959  -13.19207
       O   -12.31959   -7.62620  -13.24881
      H1   -11.90788   -7.53142  -14.10160
       H   -11.68641   -2.85981   -8.01448
       O   -12.04320   -2.64803   -8.89914
      H1   -12.99179   -2.44461   -8.71585
       H    -9.05119   -9.18182   -3.35738
       O    -9.11771   -8.53793   -2.67080
      H1    -8.94349   -7.65856   -3.05839
       H   -17.39962   -6.36059  -10.75052
       O   -16.65907   -6.36979  -10.16445
      H1   -15.83520   -6.23729  -10.65939
       H    -9.13541   -3.79661   -6.33067
       O    -9.80468   -4.11032   -6.96590
      H1    -9.38369   -3.89094   -7.84174
       H   -13.65177   -7.48538   -4.29306
       O   -13.68871   -6.68604   -3.73324
      H1   -12.82505   -6.33275   -3.67791
       H    -8.90924   -3.91387  -11.40872
       O    -8.10522   -3.60634  -11.87730
      H1    -7.83867   -4.38921  -12.43657
       H   -14.20848  -13.04561   -4.86271
       O   -13.34697  -13.26969   -5.18554
      H1   -13.09129  -12.52701   -5.72447
       H   -19.72225   -7.12382   -5.12242
       O   -19.30192   -7.24534   -5.96602
      H1   -18.45709   -6.83328   -5.84149
       H   -11.80189  -10.80386   -8.04901
       O   -12.48789  -10.35813   -7.54440
      H1   -13.23947  -10.95903   -7.48245
       H   -14.68895  -12.16359   -8.35793
       O   -14.61661  -11.82521   -7.44222
      H1   -15.47690  -11.43994   -7.38178
       H    -7.93403   -9.02890   -8.77363
       O    -8.24973   -9.85524   -8.31384
      H1    -9.01820   -9.99825   -8.86248
       H   -17.69195  -11.00673   -7.93482
       O   -17.09561  -10.32636   -7.59024
      H1   -17.47371   -9.52840   -8.03945
       H   -12.23492   -5.84914   -6.49930
       O   -12.15462   -4.99881   -6.04064
      H1   -11.51213   -4.53169   -6.51479
       H   -13.63704   -6.31276  -12.13280
       O   -14.25481   -5.91389  -11.50839
      H1   -13.74883   -5.49853  -10.83032

