162
frame 10 | Written by MDAnalysis XYZWriter (release 2.4.3)
       H     9.04717   -8.63607  -14.32962
       O     8.42629   -9.03911  -13.64477
      H1     8.66010   -9.99051  -13.83718
       H     1.37385  -16.24478  -10.55689
       O     1.01562  -17.18972  -10.52664
      H1     0.71347  -17.25487  -11.41741
       H     0.98854  -18.75897  -15.77064
       O     1.87158  -18.63694  -15.43567
      H1     2.14203  -19.53813  -15.19270
       H     9.12830  -19.61496  -17.25000
       O     8.76477  -19.46766  -16.33306
      H1     8.75634  -18.53325  -16.29502
       H     4.35855  -16.31374  -16.95768
       O     3.56605  -15.89576  -16.68093
      H1     2.86148  -16.27641  -17.26811
       H     5.74127  -12.94547  -12.95479
       O     4.91012  -12.63604  -12.59548
      H1     4.65016  -11.94600  -13.18813
       H     2.87824  -19.29816  -16.95537
       O     3.35158  -19.84077  -17.60450
      H1     4.17912  -20.17061  -17.13309
       H     3.98997  -11.50581  -17.11782
       O     3.22919  -11.30613  -17.68947
      H1     2.45778  -11.75519  -17.31118
       H     7.55659  -17.42114   -9.34450
       O     7.17729  -16.81005  -10.04450
      H1     6.26928  -16.98048   -9.78830
       H     7.27808  -15.28784  -17.18769
       O     7.74688  -14.46563  -17.17297
      H1     7.90227  -14.23385  -18.12925
       H     5.75333  -15.50955   -6.72738
       O     5.35943  -16.15707   -6.18768
      H1     5.04911  -15.67225   -5.42862
       H    12.35165  -16.28212  -15.23330
       O    12.47624  -16.85688  -15.98950
      H1    12.69616  -17.81083  -15.85462
       H     5.22611  -12.64899   -8.44256
       O     5.87184  -12.51881   -7.72453
      H1     5.24874  -12.38869   -6.96928
       H     0.11313  -14.10475  -15.00671
       O     0.43001  -14.92715  -15.37490
      H1     0.79138  -15.33186  -14.61771
       H     1.01803  -16.12782  -16.74832
       O     1.21643  -16.46767  -17.61725
      H1     0.71085  -17.25211  -17.67067
       H     1.72750  -17.34147  -14.20770
       O     1.41002  -16.70215  -13.55513
      H1     2.19922  -16.17283  -13.31819
       H    10.83506  -12.85421  -10.81462
       O     9.95453  -12.68909  -10.40300
      H1     9.51271  -13.50033  -10.67353
       H     6.61386  -13.95364   -8.10066
       O     7.10046  -14.80546   -7.96580
      H1     6.95817  -15.37363   -8.67568
       H    12.30339  -18.81559  -10.67084
       O    12.08890  -17.99722  -11.19274
      H1    12.11994  -17.25549  -10.55930
       H     9.11020  -19.15138   -8.47452
       O     9.98961  -18.79517   -8.37673
      H1    10.53346  -19.58641   -8.22829
       H     9.52468  -13.26829  -17.47384
       O    10.32777  -12.94516  -17.90046
      H1    11.16281  -13.35353  -17.51384
       H     3.52590  -19.84074  -11.99993
       O     4.02509  -19.04217  -12.17124
      H1     3.42783  -18.47477  -12.64545
       H    12.94405  -15.09050   -9.11043
       O    12.28494  -15.50023   -9.68700
      H1    11.56047  -15.82131   -9.12773
       H    -0.04496  -12.60031  -17.64392
       O     0.59990  -11.99626  -17.21357
      H1     0.41907  -11.14759  -17.67132
       H     8.81308  -15.47969  -12.10716
       O     9.13955  -15.10923  -11.30849
      H1     8.53380  -15.40976  -10.61583
       H     4.12842  -18.51761   -9.40957
       O     4.62487  -19.20520   -8.88604
      H1     4.68002  -18.90526   -7.97273
       H    -0.65971  -16.46353  -13.02479
       O    -1.50150  -16.28335  -12.65716
      H1    -1.36718  -15.43947  -12.22660
       H     3.67453  -15.55633  -14.70107
       O     3.75759  -15.52022  -13.70581
      H1     3.80488  -14.62101  -13.34969
       H     6.92317   -8.99238  -14.40144
       O     6.15262   -9.20065  -14.96557
      H1     5.45954   -9.49639  -14.45039
       H     2.90605  -14.00657  -18.99452
       O     3.43095  -13.55425  -19.69391
      H1     3.64587  -12.70500  -19.28620
       H     4.50702  -17.31740  -11.35112
       O     4.36748  -16.63163  -10.70914
      H1     3.62734  -16.13875  -11.06177
       H    12.19747  -14.08223  -10.63541
       O    12.52854  -13.33726  -11.20853
      H1    13.15160  -13.80574  -11.78929
       H     3.23617   -9.95879  -14.23291
       O     3.25119  -10.91422  -14.32593
      H1     2.36999  -11.15772  -13.94874
       H    -0.86012  -15.29698  -16.95395
       O    -1.74690  -15.25850  -17.32771
      H1    -2.43439  -14.95570  -16.65370
       H     6.95334   -9.40102  -16.55179
       O     7.51805   -9.53886  -17.34911
      H1     7.26731   -8.85795  -17.96423
       H    10.33586  -11.16926  -11.22173
       O    10.64806  -10.45851  -11.79920
      H1    10.88180  -10.92506  -12.60404
       H    10.93539  -11.68725  -15.20997
       O    11.76940  -11.80764  -14.72080
      H1    12.51041  -11.26191  -15.11607
       H     7.86706  -19.22684  -19.08462
       O     6.94331  -19.40878  -18.93503
      H1     6.45161  -19.18383  -19.75235
       H    10.70471  -16.89412  -16.30186
       O     9.80791  -16.95058  -16.52604
      H1     9.53534  -16.42386  -17.30724
       H    10.66903  -18.10484  -12.13595
       O     9.96533  -18.49187  -12.72727
      H1    10.45676  -18.78987  -13.53211
       H     6.91827  -11.03945  -18.22471
       O     6.77924  -11.96653  -18.45822
      H1     6.22988  -12.36056  -17.79612
       H    -0.87315  -19.35463  -16.09525
       O    -0.65627  -18.59460  -16.69706
      H1    -0.91649  -18.95455  -17.56192
       H     2.61851  -13.81013  -10.42603
       O     2.13000  -14.56050  -10.85834
      H1     1.20338  -14.35023  -10.89744
       H    11.56102  -15.01192  -13.28710
       O    12.31548  -15.15135  -13.88301
      H1    12.83562  -14.33683  -13.83193
       H     3.58613  -11.96559   -9.48845
       O     3.92904  -12.79428   -9.85863
      H1     4.15813  -12.60384  -10.79504
       H     6.89822  -13.49333  -14.65324
       O     7.24053  -13.47504  -13.79021
      H1     7.82510  -14.23419  -13.65991
       H     6.77929  -16.92521  -13.83639
       O     6.03111  -17.17558  -14.37035
      H1     5.45098  -16.53137  -13.99626
       H     8.96451  -11.39974  -12.84287
       O     9.02884  -11.54286  -13.86013
      H1     8.32211  -12.26664  -13.95876
       H    13.18286  -13.81999  -16.55039
       O    12.66416  -14.30965  -17.20053
      H1    12.64564  -15.20747  -16.79877
       H     8.39204  -14.20641   -7.25520
       O     9.23861  -14.10823   -6.70043
      H1     9.60936  -13.29484   -7.12006
       H     6.27727  -17.73166  -17.72452
       O     6.01594  -16.82823  -17.79668
      H1     5.66031  -16.69325  -18.71880
       H     0.42321  -11.79039  -13.28469
       O     0.83508  -11.02931  -12.82205
      H1     0.12636  -10.36970  -12.91014
       H     6.21794  -13.61346  -16.36500
       O     5.71767  -12.90564  -15.88810
      H1     4.80663  -13.16400  -15.83351
       H     9.17016  -17.08062  -13.37404
       O     8.72809  -16.24436  -13.73192
      H1     8.99739  -16.23392  -14.69958

