162
frame 7 | Written by MDAnalysis XYZWriter (release 2.4.3)
       H   -10.68777    6.29160   13.55947
       O   -10.99801    6.35731   14.52738
      H1   -11.52728    7.15047   14.57481
       H    -7.80518   13.46504   14.57156
       O    -8.19200   13.22764   15.46723
      H1    -8.83297   13.81444   15.86859
       H    -9.71993   10.86842   13.83395
       O   -10.09103   11.37879   14.53100
      H1    -9.36296   11.90431   14.89653
       H   -11.90982   13.81587   15.40987
       O   -12.29152   13.10345   14.89063
      H1   -11.52529   12.46948   14.71070
       H   -11.46125   15.90395   18.88152
       O   -12.04742   15.26670   18.39995
      H1   -12.73570   15.81359   17.98866
       H   -12.32998    7.36503   10.66658
       O   -11.70483    6.87277   10.05008
      H1   -10.87407    7.04388   10.43735
       H   -14.36035   11.70495   17.06049
       O   -13.93537   11.28380   16.29712
      H1   -13.28159   11.82969   15.85460
       H   -15.32274   14.32728   16.90660
       O   -15.48127   14.50095   15.93237
      H1   -15.80049   15.42898   15.94667
       H    -4.97090   16.01113   13.84434
       O    -5.65164   16.60406   14.23643
      H1    -6.37496   16.30205   13.66236
       H   -10.29248   16.05672   12.17613
       O    -9.95232   15.23253   11.85092
      H1   -10.45112   14.87365   11.09466
       H    -7.91011   16.63723   19.25644
       O    -7.00805   16.98539   19.17782
      H1    -6.99460   17.27072   18.22566
       H    -8.27935    9.41860    9.71517
       O    -8.71359   10.11460   10.19515
      H1    -8.54831    9.90255   11.10783
       H   -13.34206   18.13204   17.54487
       O   -13.15272   17.63485   16.74592
      H1   -12.34764   17.87508   16.25041
       H    -8.45110   14.96447   12.73286
       O    -7.64571   14.86840   13.34636
      H1    -7.32686   13.99251   13.09795
       H   -11.42582    9.83619   17.44009
       O   -12.28176    9.93674   17.82645
      H1   -12.76988   10.28203   17.07652
       H   -14.13347    9.68106   18.64188
       O   -14.46570    9.83287   19.55149
      H1   -15.11582    9.16648   19.67064
       H   -14.97735    9.95982   15.91702
       O   -15.80831    9.38505   15.92828
      H1   -15.51920    8.48365   15.82312
       H   -13.50377   14.73274   13.35630
       O   -14.13896   15.43934   13.61639
      H1   -14.42083   15.25518   14.50983
       H   -13.61595    9.05147   14.40519
       O   -13.19546    8.20067   14.63325
      H1   -13.29715    8.05669   15.57891
       H    -4.16600   13.31371   18.92322
       O    -3.57114   12.77972   18.35725
      H1    -3.27505   12.08782   18.92609
       H   -14.25971   11.58787   13.92287
       O   -14.53317   10.79210   13.43775
      H1   -15.01537   11.16587   12.73609
       H    -7.68551   11.38849   17.47492
       O    -8.42947   11.37344   18.17508
      H1    -7.97172   11.04698   18.90086
       H    -8.73721    5.46095   12.56512
       O    -9.35171    5.96008   12.00057
      H1    -9.98752    5.27879   11.68622
       H    -5.46293   12.36966   13.08249
       O    -6.37997   12.36327   12.75661
      H1    -6.24996   12.45974   11.79429
       H   -13.95675   16.90930   12.94438
       O   -14.01111   17.77536   12.55448
      H1   -13.31611   18.23833   13.02203
       H   -10.24171   15.59523   15.98088
       O   -10.59778   14.72067   16.25488
      H1   -11.07243   14.88072   17.09485
       H   -12.29356   13.48323   12.44534
       O   -12.80491   13.81389   11.68852
      H1   -13.10792   13.03200   11.20327
       H    -8.75274   17.30753   16.06693
       O    -9.70420   17.53129   15.90753
      H1    -9.84349   17.44741   14.96057
       H   -14.25076    6.67767   16.67575
       O   -13.73324    7.09241   17.36687
      H1   -13.04700    6.45867   17.61727
       H   -12.49415   11.90088   19.03064
       O   -13.10703   12.67701   19.01881
      H1   -12.54832   13.36266   18.63949
       H    -5.53403   10.03793   11.26922
       O    -5.53326    9.16034   11.68688
      H1    -4.64828    9.17975   12.11736
       H    -9.98697    7.31183   17.08458
       O    -9.40725    6.56197   16.80255
      H1    -9.82583    6.31785   15.95429
       H   -11.62827   14.17625    9.41457
       O   -11.57302   15.12537    9.24602
      H1   -11.18892   15.29143    8.42561
       H    -8.41765    7.42553   15.25307
       O    -7.78112    7.91689   14.64401
      H1    -7.03865    8.03072   15.22544
       H    -9.92282   10.25053   15.82637
       O    -9.91151    9.80279   16.67806
      H1    -9.44229   10.38732   17.29122
       H   -10.10362   17.04452   20.24704
       O    -9.95226   16.84752   19.30651
      H1   -10.20705   17.67892   18.84322
       H    -6.83939   14.75774   17.48223
       O    -5.97898   14.37702   17.29799
      H1    -5.76145   14.68877   16.40467
       H    -7.95738    9.23148   13.27551
       O    -8.26894   10.09529   12.87450
      H1    -7.56118   10.71385   13.00241
       H    -3.28252   10.51262   15.24792
       O    -3.08852    9.53367   15.31494
      H1    -2.20141    9.47583   15.69029
       H    -6.79838    5.53893   13.51816
       O    -7.26753    4.75092   13.20529
      H1    -6.69371    4.23704   12.65354
       H    -9.81775   18.18520   12.63783
       O   -10.45358   17.69507   13.25612
      H1   -10.97852   18.45761   13.53118
       H    -8.26684    6.67850   10.72977
       O    -7.83628    6.86268    9.84362
      H1    -6.90582    6.98351    9.87718
       H   -15.45249   14.68709   12.50745
       O   -16.19354   14.23818   12.06195
      H1   -16.64737   15.01237   11.57789
       H   -13.89495    8.72998   11.48641
       O   -13.01163    8.47429   11.70085
      H1   -13.04492    8.08813   12.59411
       H    -3.82964   12.86913   14.97858
       O    -4.25106   12.01655   15.01632
      H1    -4.98885   12.05711   15.67624
       H    -6.72315   17.37705   15.64547
       O    -7.14085   17.64567   16.44860
      H1    -6.62836   18.38046   16.75595
       H    -6.81372   12.75294    9.46761
       O    -6.69535   11.89689    9.94010
      H1    -7.55745   11.44466   10.08983
       H    -7.00931   15.82356   10.54513
       O    -7.83008   16.29112   10.34600
      H1    -8.60646   15.85953   10.76985
       H    -9.80967   11.85106    7.92911
       O    -9.41431   11.52846    7.08524
      H1    -9.61986   10.61146    7.03709
       H   -10.38928   11.28840    9.84855
       O   -10.76941   12.13410    9.52090
      H1   -11.74712   11.96419    9.40736
       H    -5.95703   12.19269   17.32670
       O    -6.27877   11.62492   16.61153
      H1    -6.79872   12.28714   16.12708
       H    -5.86700    9.29207   16.32341
       O    -5.44634    8.47241   16.16025
      H1    -4.55898    8.76640   15.84622
       H    -5.06992    8.71536   17.98235
       O    -4.62735    8.37110   18.75569
      H1    -5.21489    8.65032   19.52326
       H   -14.16454   12.35305    8.86980
       O   -13.47719   11.85698    9.32740
      H1   -13.28980   11.11070    8.73101

