162
frame 6 | Written by MDAnalysis XYZWriter (release 2.4.3)
       H   -14.81776   12.92496    2.23778
       O   -15.51124   13.63410    2.33399
      H1   -15.12470   14.43818    1.95442
       H   -11.01240    9.92487    3.45334
       O   -11.94393   10.11224    3.50784
      H1   -12.06028   10.91338    2.94716
       H   -16.92150   12.99221    1.63565
       O   -17.67909   12.64350    1.16931
      H1   -17.49595   12.88980    0.20710
       H   -13.04992   17.89340   -0.19694
       O   -13.74015   18.40760    0.30134
      H1   -13.52690   19.33300    0.05881
       H   -11.18599   17.11905   -1.67899
       O   -11.68397   16.95015   -0.84440
      H1   -11.20431   16.24550   -0.42441
       H   -16.91429   12.95424   -4.31691
       O   -17.71500   12.86043   -3.78405
      H1   -17.86965   11.94185   -3.71188
       H    -9.70573   19.99173    1.27178
       O    -9.91751   19.28538    0.66758
      H1   -10.76135   19.00070    1.04315
       H   -12.08597    9.99721   -0.29081
       O   -11.26768    9.54960   -0.50037
      H1   -10.99074    9.09468    0.31387
       H   -11.84463   20.03288   -4.97813
       O   -11.10908   19.56420   -4.62133
      H1   -11.23336   18.66342   -4.32268
       H   -14.41606    8.21530   -1.63784
       O   -13.69432    7.54707   -1.61046
      H1   -13.04536    7.71205   -0.92253
       H   -18.13068   14.70111    2.02892
       O   -18.69900   15.37792    2.41479
      H1   -19.08381   15.01876    3.20151
       H   -13.15928   16.10932   -1.70625
       O   -13.97897   15.60060   -1.59427
      H1   -14.52259   15.64511   -2.38400
       H    -7.88779   12.27026   -4.26355
       O    -7.78186   13.19684   -4.29961
      H1    -7.78134   13.41165   -5.22479
       H    -8.25356    9.52774    0.50526
       O    -8.53610   10.14106   -0.19400
      H1    -9.45976   10.05723   -0.22234
       H   -12.91488   19.51153    3.74906
       O   -13.64499   19.87912    4.29885
      H1   -14.25262   19.10306    4.13284
       H    -9.32103   17.40240    4.30377
       O    -8.81293   17.90344    4.91855
      H1    -7.94093   17.81275    4.60993
       H   -12.98535   13.19641   -4.94270
       O   -13.18885   13.80610   -5.66219
      H1   -12.35073   13.83364   -6.19252
       H   -11.52390   10.21432   -4.79570
       O   -12.30489    9.86363   -5.30282
      H1   -12.84181   10.66391   -5.33291
       H   -12.60194   18.39938    1.94376
       O   -11.85549   18.50560    2.54461
      H1   -11.74746   17.64631    3.02014
       H   -10.66085   16.22900   -3.58255
       O   -10.75136   17.18913   -3.35251
      H1    -9.90949   17.47805   -3.01719
       H   -15.89469   16.94144   -3.74511
       O   -15.85222   15.96801   -3.52629
      H1   -16.77471   15.75599   -3.27996
       H   -14.50428   15.82849    0.87768
       O   -15.34981   15.94540    1.26837
      H1   -16.02377   15.86413    0.52929
       H    -7.89050   12.57156    2.45263
       O    -7.38920   11.73914    2.50820
      H1    -7.61045   11.31962    1.63755
       H   -17.06934   18.54836    0.26499
       O   -16.43935   18.71578   -0.45882
      H1   -15.62831   18.48223   -0.04305
       H   -12.73963   12.91706    1.52266
       O   -13.00256   12.10274    2.02261
      H1   -13.45314   11.46301    1.45234
       H   -14.90774   12.76338   -1.83727
       O   -14.01255   12.36079   -1.71573
      H1   -13.51092   12.93097   -1.07995
       H   -14.41706   16.39893    6.19233
       O   -14.81904   17.13528    6.64450
      H1   -15.34335   16.69130    7.31097
       H   -10.30266   15.30712    3.85581
       O   -10.79234   16.11920    4.06101
      H1   -11.69643   15.80723    4.23764
       H   -15.38320   10.78807   -1.73168
       O   -15.55960    9.83376   -1.89996
      H1   -16.27864    9.68417   -2.47784
       H    -7.12351   16.03488   -1.94795
       O    -6.67854   15.79849   -1.14768
      H1    -6.91525   14.83924   -0.87597
       H    -5.35943   12.28795   -2.94034
       O    -5.38906   13.24531   -3.05805
      H1    -6.34057   13.38615   -3.36045
       H    -8.91838   12.53016   -1.80622
       O    -9.25481   13.39424   -1.50731
      H1    -9.49695   13.82228   -2.31623
       H   -11.52597   11.46506   -3.43157
       O   -11.97257   12.35596   -3.38879
      H1   -12.70741   12.23905   -2.67463
       H   -14.22933    9.35633    1.42184
       O   -13.96205   10.01383    0.81358
      H1   -14.71317   10.03170    0.25002
       H    -8.05377   17.32502   -4.05497
       O    -7.93044   17.43521   -3.10832
      H1    -7.49837   18.31160   -2.98471
       H   -16.28836   18.22225    3.05448
       O   -15.43107   17.94326    3.46838
      H1   -15.18557   17.23238    2.82935
       H    -6.78795   10.53425   -0.25935
       O    -5.81940   10.76489   -0.01832
      H1    -5.73228   11.75915   -0.04986
       H    -9.92239   13.28089    3.50172
       O    -9.20763   13.70766    3.03931
      H1    -9.60020   13.93756    2.21155
       H   -16.80096   14.19103   -1.06303
       O   -16.65978   13.29191   -1.40189
      H1   -17.30671   13.27400   -2.19687
       H   -14.14340   16.68796   -7.16022
       O   -13.50403   16.59079   -6.41550
      H1   -13.83713   15.86076   -5.90463
       H   -11.78430   12.08908    5.07831
       O   -11.53135   12.97819    5.26566
      H1   -11.06281   12.84768    6.16503
       H    -8.36818    9.49748    3.84746
       O    -9.26813    9.16408    3.82559
      H1    -9.11399    8.21031    3.95405
       H    -5.41636   13.30228   -1.02779
       O    -5.83831   13.29414   -0.14014
      H1    -5.45124   13.88790    0.54517
       H    -6.93778   17.23134    1.40969
       O    -6.00476   17.26248    1.78812
      H1    -5.51541   17.83338    1.18918
       H   -12.03182   14.14774    0.16119
       O   -12.97907   13.95990    0.21535
      H1   -13.42078   14.46484   -0.47743
       H   -15.79608   13.42301    4.36715
       O   -15.53171   13.00575    5.19292
      H1   -15.25532   12.07565    5.02025
       H    -7.98228   16.63524   -0.07092
       O    -8.65675   16.78409    0.61247
      H1    -9.04580   17.65820    0.46824
       H   -15.40384    9.72929    5.01803
       O   -14.71898   10.40615    5.08798
      H1   -14.05819   10.14052    4.43979
       H   -12.78475   14.25500    5.14308
       O   -13.42519   14.99400    5.08429
      H1   -14.22989   14.40640    4.97748
       H    -9.35320   10.07496   -3.38121
       O   -10.32961   10.11168   -3.23843
      H1   -10.41161    9.94591   -2.27528
       H   -17.13421   17.00174   -1.03154
       O   -17.52748   16.13103   -1.01436
      H1   -18.41946   16.31374   -0.63771
       H   -17.19654    9.76334   -0.06007
       O   -16.80489   10.09270    0.71925
      H1   -17.35756   10.93676    0.84306
       H   -11.00380   13.79722   -3.70484
       O   -10.51278   14.65578   -3.86222
      H1    -9.71876   14.41272   -4.32061
       H    -9.92141   14.14509   -0.10456
       O   -10.46838   14.68502    0.55181
      H1    -9.88701   15.45518    0.84826

