162
frame 0 | Written by MDAnalysis XYZWriter (release 2.4.3)
       H    -8.05963    8.89834  -17.19049
       O    -9.02948    8.76231  -17.35783
      H1    -9.43062    8.69198  -16.52775
       H    -5.37141   11.60217  -13.44671
       O    -5.06520   12.12850  -12.73392
      H1    -5.18821   11.53121  -12.00739
       H    -4.11233   14.56976  -10.47154
       O    -4.32906   14.49814  -11.43600
      H1    -4.36745   13.62225  -11.79373
       H    -6.38927   14.16697  -15.43726
       O    -6.75696   14.30502  -16.28859
      H1    -6.14847   14.98647  -16.59244
       H    -5.00431   18.62971  -11.24919
       O    -5.87595   18.78131  -11.68608
      H1    -5.90859   19.66542  -12.03353
       H   -11.33229   12.04974  -11.88614
       O   -12.08735   12.41190  -11.46931
      H1   -12.64609   12.40699  -12.25411
       H    -4.97334    9.74574   -8.01034
       O    -5.86657    9.95594   -7.67621
      H1    -6.39304    9.49322   -8.34690
       H    -6.17297   19.64596  -15.14035
       O    -5.38677   19.28035  -14.69178
      H1    -5.45709   18.30656  -14.86058
       H    -7.62082    7.98752   -9.48468
       O    -7.61509    8.95535   -9.41638
      H1    -8.54676    9.21489   -9.31866
       H   -10.03627   15.66109  -10.24743
       O   -10.68486   15.56933  -10.96227
      H1   -10.40907   16.02745  -11.77329
       H    -2.75949    7.17158   -6.52751
       O    -2.70447    8.11861   -6.78836
      H1    -2.94380    8.15154   -7.72939
       H    -4.32502   16.58567  -17.94512
       O    -4.36129   15.61672  -17.86775
      H1    -4.88124   15.48094  -18.71951
       H    -3.98557    6.26180  -11.99229
       O    -4.30484    5.37189  -11.92743
      H1    -4.69670    5.30107  -12.79342
       H    -2.89351   19.08003  -10.97540
       O    -3.31011   18.31511  -10.53003
      H1    -3.85866   18.67413   -9.82747
       H    -9.39707   10.57766  -16.16492
       O    -9.66432   11.21620  -15.49185
      H1   -10.29774   10.76566  -14.96445
       H    -6.08073    7.93337  -17.30427
       O    -6.01476    8.88002  -17.16120
      H1    -5.98190    9.01008  -16.20860
       H    -1.09235   12.05503  -15.42561
       O    -1.25470   12.91393  -14.93604
      H1    -1.36264   13.66473  -15.48622
       H    -9.47281   10.32276  -11.83607
       O   -10.35913   10.13374  -11.52714
      H1   -10.36429   10.21840  -10.58520
       H     0.60949   10.67951  -15.92253
       O    -0.08021   10.15614  -15.59755
      H1    -0.88830   10.15055  -16.15957
       H   -11.12083   16.12764  -14.53797
       O   -11.48164   15.62388  -15.30746
      H1   -10.79388   15.04655  -15.66755
       H    -6.01351   13.92205  -10.37452
       O    -6.81168   13.87947   -9.83648
      H1    -7.57008   13.49288  -10.39732
       H   -10.91986   17.77347  -12.90968
       O   -10.71730   16.91253  -13.30930
      H1    -9.76186   16.80360  -13.33639
       H    -3.26324    8.80491   -9.80925
       O    -3.45945    9.50350   -9.15393
      H1    -3.09041   10.36998   -9.33747
       H    -6.41068    9.67878  -18.65277
       O    -6.47838   10.24295  -19.46373
      H1    -6.60721   11.20864  -19.30440
       H    -6.33633    6.87759  -14.24818
       O    -7.11535    7.45507  -14.20458
      H1    -7.13120    7.51219  -13.27313
       H    -0.16740   10.65483   -7.58833
       O     0.03453   11.32940   -8.24044
      H1    -0.80995   11.49780   -8.63302
       H    -4.89450    9.41321  -14.33910
       O    -5.53373   10.06152  -14.69312
      H1    -6.30989    9.89238  -14.13325
       H    -7.00792   16.31543  -13.56537
       O    -7.93110   16.16967  -13.81383
      H1    -8.10935   16.83882  -14.55514
       H    -0.24328   11.99189  -12.16706
       O    -1.14228   11.69503  -12.28076
      H1    -1.45560   12.01687  -13.09773
       H    -8.43819   16.76277   -8.50998
       O    -8.63754   16.14654   -9.20285
      H1    -7.84597   15.53138   -9.15714
       H     1.27479   10.27091  -10.41813
       O     1.46440   11.11787  -10.85130
      H1     1.33400   11.77489  -10.21861
       H    -8.75213   14.19825  -16.30056
       O    -9.59954   13.88937  -16.63050
      H1    -9.61232   13.01613  -16.24236
       H    -1.88546    6.54031  -10.19502
       O    -2.33116    7.34677  -10.50071
      H1    -1.65110    7.84228  -11.04041
       H    -7.63815   13.29871  -19.45506
       O    -6.86290   12.94414  -18.93619
      H1    -6.86883   13.33255  -18.08395
       H    -9.00149   11.16220   -7.28120
       O    -9.26964   11.97571   -6.84786
      H1    -9.97991   12.51197   -7.30597
       H    -3.08093    7.02587  -16.24202
       O    -3.43230    6.65117  -15.39290
      H1    -2.72481    6.01185  -15.18761
       H    -2.47686   15.22447  -16.90246
       O    -1.76289   15.38464  -16.25671
      H1    -2.11307   15.77487  -15.46348
       H    -6.80079   13.16051  -13.01807
       O    -7.68502   13.42598  -13.31244
      H1    -7.57745   14.36600  -13.57499
       H    -9.52729    8.08879  -14.42331
       O   -10.38898    7.99777  -14.83577
      H1   -10.24702    7.09488  -15.22338
       H    -5.46934   13.19670   -7.98060
       O    -5.18069   12.54315   -7.29928
      H1    -5.63165   11.72298   -7.58308
       H     2.32377   13.98801  -14.68307
       O     1.53914   14.44316  -14.46282
      H1     0.86325   13.82456  -14.72042
       H    -8.32425    6.01913  -12.47822
       O    -8.60258    6.82724  -11.87357
      H1    -8.33419    6.49760  -11.02243
       H    -2.86584    8.84645  -13.01458
       O    -3.70947    8.52295  -13.35971
      H1    -3.48806    7.89755  -14.11896
       H    -3.59741   14.45539   -7.95954
       O    -3.58176   14.63919   -8.90170
      H1    -2.76869   15.17849   -9.03685
       H    -1.73860   15.71411  -13.25520
       O    -2.07781   16.57203  -13.43184
      H1    -2.93175   16.58442  -12.91180
       H    -0.78925    9.03835  -13.19155
       O    -1.16633    9.12664  -12.34374
      H1    -1.06240   10.15074  -12.21542
       H    -8.52176   13.06190  -11.78431
       O    -9.05322   12.90426  -11.01816
      H1    -9.54842   13.76300  -11.03779
       H    -7.87018   11.19253  -13.02959
       O    -7.82031   10.28183  -12.63888
      H1    -7.36599   10.36932  -11.74754
       H    -2.06644   12.02464  -10.72072
       O    -2.31328   12.09704   -9.76666
      H1    -2.40959   13.06655   -9.67759
       H    -4.94304   15.95095  -12.44592
       O    -5.23382   16.67005  -12.99226
      H1    -5.64133   17.37850  -12.42601
       H    -6.52356   11.82643  -10.06291
       O    -6.09798   11.11444  -10.55224
      H1    -6.45448   10.38597  -10.05437
       H    -4.37634    8.67489  -20.04514
       O    -3.83164    8.59699  -19.21514
      H1    -4.31837    9.07442  -18.51583
       H    -0.69602   16.12282   -9.20029
       O    -1.46057   16.12335   -9.85414
      H1    -1.89547   16.98777   -9.96819
       H    -3.72725   10.16961  -16.39318
       O    -2.80193    9.97925  -16.57006
      H1    -2.63534   10.26510  -17.47238

