162
frame 6 | Written by MDAnalysis XYZWriter (release 2.4.3)
       H   -11.01240    9.92487    3.45334
       O   -11.94393   10.11224    3.50784
      H1   -12.06028   10.91338    2.94716
       H    -2.09908   14.11191    3.39525
       O    -2.17675   15.05120    3.41232
      H1    -2.54961   15.27216    2.56072
       H    -1.98572    4.06098    0.33345
       O    -1.33322    3.82851   -0.36980
      H1    -1.40901    2.86245   -0.28637
       H     0.02327    5.27256    4.40393
       O     0.40275    5.92047    5.03951
      H1     1.38244    5.80017    5.07309
       H    -2.72857    7.64498   -0.28372
       O    -3.38877    7.02991    0.04399
      H1    -3.63209    6.54129   -0.72373
       H   -10.08632    6.40611    5.52063
       O    -9.43260    6.66971    4.87903
      H1    -8.58204    6.45965    5.32374
       H    -4.74241    9.66144   -3.74298
       O    -4.68575   10.18688   -2.91343
      H1    -5.24446    9.64671   -2.30095
       H    -8.25356    9.52774    0.50526
       O    -8.53610   10.14106   -0.19400
      H1    -9.45976   10.05723   -0.22234
       H    -6.56304    4.92476    1.07884
       O    -6.82433    4.47631    0.29087
      H1    -7.61578    3.92379    0.42123
       H    -4.70877    5.64229   -3.43111
       O    -5.01547    5.72365   -2.50256
      H1    -5.70469    5.12200   -2.39755
       H    -3.25651    5.83638    1.30463
       O    -3.31456    4.94087    1.68642
      H1    -2.63764    4.90024    2.41765
       H   -11.49450    9.39988    6.29330
       O   -10.51700    9.41120    6.28859
      H1   -10.16148    9.26407    5.43967
       H     0.64428    7.48215    0.45503
       O     1.44531    7.05793    0.77207
      H1     2.03400    7.74977    1.14701
       H    -2.10949    6.61085   -3.14188
       O    -1.33925    6.01137   -3.04347
      H1    -1.56447    5.64902   -2.17570
       H    -6.70332    8.40254    2.04183
       O    -7.11454    8.18593    1.15942
      H1    -6.45785    8.31428    0.55670
       H    -7.89050   12.57156    2.45263
       O    -7.38920   11.73914    2.50820
      H1    -7.61045   11.31962    1.63755
       H    -4.66634    8.40107   10.02829
       O    -5.16687    7.93685    9.37782
      H1    -5.21310    8.59548    8.61564
       H    -3.69694    8.38687    1.67898
       O    -4.03808    8.93547    2.42129
      H1    -4.43120    9.66884    1.97522
       H    -1.84716   11.21024   -1.25558
       O    -1.99516   11.23274   -2.24961
      H1    -2.90581   11.18440   -2.34549
       H    -6.35745    7.51983    4.76217
       O    -6.20696    7.85239    3.83683
      H1    -5.25461    8.13501    3.79568
       H    -7.89461    2.91209    3.89312
       O    -7.56571    3.10490    2.98231
      H1    -6.88553    3.72582    3.17687
       H    -7.12351   16.03488   -1.94795
       O    -6.67854   15.79849   -1.14768
      H1    -6.91525   14.83924   -0.87597
       H    -5.35943   12.28795   -2.94034
       O    -5.38906   13.24531   -3.05805
      H1    -6.34057   13.38615   -3.36045
       H    -8.91838   12.53016   -1.80622
       O    -9.25481   13.39424   -1.50731
      H1    -9.49695   13.82228   -2.31623
       H    -1.46184    3.75222    3.63359
       O    -1.67823    4.67216    3.59856
      H1    -2.34074    4.89675    4.27876
       H    -4.64992   14.51757    2.31834
       O    -4.37210   15.11816    1.62001
      H1    -4.91130   15.87510    1.83592
       H    -6.39521    6.27246    6.60879
       O    -7.05980    6.86009    6.18244
      H1    -7.55121    7.13853    6.94453
       H    -4.47353   12.12364    3.67098
       O    -4.77382   12.42388    2.79887
      H1    -5.68500   12.19562    2.69778
       H    -6.78795   10.53425   -0.25935
       O    -5.81940   10.76489   -0.01832
      H1    -5.73228   11.75915   -0.04986
       H    -5.06591    6.49505    8.26397
       O    -5.15258    5.68519    7.70929
      H1    -4.43063    5.58705    7.08225
       H    -9.92239   13.28089    3.50172
       O    -9.20763   13.70766    3.03931
      H1    -9.60020   13.93756    2.21155
       H    -0.73078    9.38866    2.95981
       O    -1.52819    9.94867    2.68625
      H1    -2.27222    9.41837    2.96212
       H    -1.06833   11.76903    4.89569
       O    -0.94707   12.32333    4.13278
      H1    -1.19501   11.70394    3.45142
       H    -4.53217    9.31742    6.41310
       O    -5.26551    9.54722    7.08662
      H1    -6.04406    9.21465    6.56990
       H    -0.80397   11.19836    0.94113
       O    -0.42902   11.50450    0.08094
      H1     0.06437   12.31274    0.27035
       H    -0.74004    9.35309    0.08217
       O    -0.85038    8.48763   -0.28661
      H1    -0.54099    8.58967   -1.21656
       H    -8.36818    9.49748    3.84746
       O    -9.26813    9.16408    3.82559
      H1    -9.11399    8.21031    3.95405
       H    -5.41636   13.30228   -1.02779
       O    -5.83831   13.29414   -0.14014
      H1    -5.45124   13.88790    0.54517
       H    -1.41144   10.31948    6.95835
       O    -1.42649   10.62096    6.08866
      H1    -2.28909   11.00132    6.02286
       H     0.58528   13.13884    3.96033
       O     1.32873   13.54449    3.50540
      H1     1.15337   14.45229    3.22577
       H     1.52879    8.43727    3.17551
       O     0.73115    8.53769    3.73524
      H1     0.58496    7.63106    3.99998
       H    -5.45180    3.51547    0.15631
       O    -4.68111    2.94630    0.22765
      H1    -4.01582    3.52664    0.62889
       H     1.59732   12.22324   -2.35534
       O     0.80999   12.78092   -2.55648
      H1     0.07444   12.23783   -2.22331
       H    -4.70642    4.94661    4.28530
       O    -4.16738    4.77883    5.06575
      H1    -4.21862    3.83235    5.10111
       H    -7.21116    8.12290   -1.46859
       O    -6.26853    8.42436   -1.71581
      H1    -5.77569    7.62085   -1.92481
       H    -6.12508   11.35470    7.12187
       O    -6.52476   12.19245    6.84101
      H1    -7.46447   12.05564    6.97416
       H    -4.85177    5.52316    2.27674
       O    -5.72443    5.41559    2.68515
      H1    -5.93611    6.39808    2.87380
       H   -10.42523    7.26324    2.10996
       O    -9.97251    7.57923    1.33763
      H1    -9.06055    7.27765    1.41497
       H    -8.75522    6.16824   -1.90756
       O    -8.64856    7.12219   -1.60851
      H1    -9.47994    7.24039   -1.23148
       H     0.42125    9.64604   -3.09196
       O    -0.51715    9.35591   -3.16494
      H1    -1.01870   10.19667   -2.99430
       H    -7.20370    9.77573   -2.89961
       O    -7.74709   10.17867   -3.63843
      H1    -7.57369    9.70460   -4.51231
       H    -3.93575   15.10903    6.21775
       O    -3.11374   14.67096    5.95457
      H1    -2.95536   15.04770    5.07396
       H    -2.32054    7.89481    5.92812
       O    -3.01701    8.44360    5.57959
      H1    -2.57345    9.27224    5.27370
       H    -3.65726   12.95681    5.48578
       O    -3.82907   11.99720    5.43991
      H1    -4.74649   11.98271    5.69689

