162
frame 2 | Written by MDAnalysis XYZWriter (release 2.4.3)
       H    -3.06259    3.13900   -2.93885
       O    -3.70487    2.47524   -2.59544
      H1    -4.18993    2.81040   -1.80887
       H    -4.70537   -3.46814  -11.29291
       O    -4.41066   -4.12349  -10.65413
      H1    -3.64690   -3.76883  -10.15686
       H    -6.51341    5.89477   -5.26637
       O    -5.99092    5.12143   -5.30793
      H1    -6.47469    4.44911   -4.76397
       H   -14.34845    1.70378   -6.05364
       O   -13.66562    1.20845   -5.53835
      H1   -13.35945    0.53050   -6.19967
       H   -10.04231   -0.60578   -9.64651
       O   -10.61233    0.11224   -9.98083
      H1   -11.12333   -0.29939  -10.72089
       H    -4.02955   -2.35665   -6.30906
       O    -3.38929   -1.97588   -6.96195
      H1    -3.94238   -1.68919   -7.69189
       H    -7.48463    2.75661   -4.86760
       O    -6.81856    2.85066   -4.12140
      H1    -7.13771    2.14510   -3.49546
       H    -3.81669    0.92050   -5.15154
       O    -4.73219    1.03504   -4.91676
      H1    -4.78019    1.74112   -4.29628
       H    -8.74996   -1.42213   -8.47935
       O    -8.99044   -1.95557   -9.29609
      H1    -8.16803   -1.79990   -9.79473
       H    -2.93320   -5.68825   -5.36103
       O    -3.82125   -6.11423   -5.29025
      H1    -4.06760   -6.27575   -6.24570
       H    -4.66265   -1.75136   -2.54721
       O    -4.01193   -2.20585   -1.97809
      H1    -3.22402   -2.18691   -2.52520
       H    -9.11439    4.14842   -6.07816
       O    -8.77090    3.26140   -6.17556
      H1    -9.50531    2.63200   -6.17752
       H   -12.15873   -6.21373  -10.49207
       O   -12.68516   -5.46357  -10.17176
      H1   -12.05503   -4.73963   -9.95982
       H    -1.04337   -3.00753   -6.19481
       O    -0.88306   -2.10219   -6.01716
      H1    -1.56746   -1.74777   -6.56560
       H   -12.86895   -3.34572   -1.24861
       O   -12.07636   -2.77596   -1.49499
      H1   -11.74280   -2.49292   -0.62406
       H    -9.84530   -6.54057   -5.74178
       O    -9.27215   -5.98676   -5.15429
      H1    -9.84054   -5.66143   -4.38520
       H    -6.18767   -3.56074   -9.21936
       O    -6.44896   -3.48761   -8.27439
      H1    -7.43315   -3.58760   -8.33026
       H    -7.79976   -3.16030   -3.82897
       O    -7.22896   -2.61852   -4.41476
      H1    -6.75861   -3.26373   -4.92403
       H   -13.53578   -0.64870   -8.01723
       O   -12.55579   -0.59988   -7.96468
      H1   -12.29634   -0.29795   -8.84864
       H    -6.53399    1.83877   -7.50549
       O    -6.41883    0.96304   -7.11736
      H1    -5.92112    1.11411   -6.31312
       H   -11.36038   -7.29081   -7.32252
       O   -10.39464   -7.25830   -7.28634
      H1   -10.12330   -8.20545   -7.27237
       H    -7.88768    0.71139  -11.25060
       O    -8.37700    0.00059  -11.64767
      H1    -9.22876    0.00892  -11.14552
       H    -7.45943    3.43569   -7.80364
       O    -6.49769    3.63438   -7.71673
      H1    -6.39001    4.12910   -6.92141
       H    -8.42218   -6.18510   -0.99852
       O    -8.63802   -5.36144   -0.51768
      H1    -7.90776   -5.14728    0.10865
       H    -1.54941   -3.47712   -9.03933
       O    -2.35579   -3.07335   -9.21845
      H1    -2.75847   -2.88604   -8.35466
       H   -13.69458   -1.39487   -3.85886
       O   -14.25060   -1.28126   -4.63450
      H1   -14.18958   -0.35188   -4.92808
       H    -9.97376    2.88890   -9.62452
       O    -9.34135    3.18329   -8.98135
      H1    -9.69803    2.85935   -8.14465
       H    -6.64755   -2.85332  -11.22407
       O    -6.70098   -2.04086  -10.75597
      H1    -7.08892   -1.38433  -11.33363
       H    -4.68114   -1.02163   -0.22060
       O    -5.42891   -1.15751    0.42775
      H1    -6.30729   -1.11288    0.00597
       H    -7.03691    0.17245   -2.66914
       O    -7.64780    0.90656   -2.35451
      H1    -8.00661    0.56762   -1.50004
       H   -11.18537    2.22347   -1.37485
       O   -12.11178    2.41029   -1.62142
      H1   -12.06730    2.67303   -2.60023
       H   -12.04538   -4.61735   -4.56324
       O   -12.01961   -4.62329   -3.59127
      H1   -11.62986   -3.82053   -3.31469
       H    -7.07139   -6.96209   -4.28884
       O    -6.39068   -7.47462   -3.89895
      H1    -6.23637   -8.17557   -4.52383
       H    -5.39422   -5.80907   -8.36293
       O    -4.67286   -6.28350   -7.93647
      H1    -4.19072   -6.72668   -8.64272
       H    -5.19981   -5.09280   -3.61134
       O    -5.28642   -4.80787   -2.68944
      H1    -4.75881   -4.00109   -2.64275
       H    -7.65620   -0.29411   -6.87324
       O    -8.37130   -0.91560   -6.74865
      H1    -8.04197   -1.43657   -6.01552
       H   -10.70741   -2.84144   -9.02679
       O   -11.68303   -3.07717   -9.03609
      H1   -12.06625   -2.26862   -8.61493
       H    -5.48904   -0.03533   -3.97815
       O    -5.76488   -0.68231   -3.30845
      H1    -6.30799   -1.38381   -3.75317
       H    -4.17407    0.85132   -9.64521
       O    -4.26158    1.81740   -9.87546
      H1    -5.16982    2.03207   -9.95373
       H    -8.12826   -1.81935   -0.78627
       O    -8.00144   -1.05231   -0.23834
      H1    -7.99030   -1.44499    0.65968
       H    -6.88321    5.27899   -2.44959
       O    -7.80714    4.91896   -2.50613
      H1    -7.72587    4.08205   -2.98519
       H    -9.23705   -5.01797   -6.62150
       O    -9.14755   -4.15303   -7.10313
      H1    -9.04913   -3.47108   -6.39549
       H   -12.87471    2.79094   -4.84650
       O   -12.74708    3.42660   -4.14955
      H1   -13.42069    4.12775   -4.36099
       H    -8.43747   -4.03428  -11.87422
       O    -7.55894   -4.43116  -11.81552
      H1    -7.68530   -5.05341  -11.05333
       H   -12.74465    0.58653   -2.01434
       O   -13.17534   -0.25249   -2.15993
      H1   -12.58155   -0.90809   -1.83329
       H    -5.48390   -0.04487   -8.52176
       O    -5.00454   -0.76493   -8.94386
      H1    -5.57637   -1.33450   -9.43950
       H    -9.86565   -3.18002   -1.77940
       O    -9.03027   -3.24967   -2.19195
      H1    -8.72853   -4.04592   -1.73614
       H    -3.26184    4.07130   -7.15312
       O    -2.89454    3.53097   -7.84565
      H1    -3.53963    3.06809   -8.44012
       H    -7.72953    2.59397  -10.06462
       O    -6.98031    2.05231  -10.39543
      H1    -6.88577    2.44256  -11.31182
       H   -11.05094    0.49950   -6.81834
       O   -10.56565    1.01764   -6.16260
      H1    -9.82707    0.42386   -5.92466
       H    -3.76188   -0.21358   -1.76608
       O    -3.35653    0.25878   -1.04556
      H1    -3.15693    1.13336   -1.38456
       H   -12.49965   -3.80162   -6.75669
       O   -12.04106   -4.50957   -6.25951
      H1   -11.12173   -4.54181   -6.67607
       H    -9.28346    0.62776    0.06343
       O    -9.88262    1.36808   -0.03334
      H1    -9.40350    2.13253    0.25856
       H    -4.57731   -4.55921   -5.78803
       O    -5.16469   -3.81746   -5.80973
      H1    -5.46595   -3.78933   -6.70967

