162
frame 3 | Written by MDAnalysis XYZWriter (release 2.4.3)
       H     8.65581   -1.36667    0.02576
       O     8.24652   -2.20985    0.08276
      H1     9.01889   -2.80677    0.12543
       H     5.61548   -1.57472    3.64967
       O     5.24170   -1.04850    2.99288
      H1     5.82570   -0.35457    2.63345
       H    11.67363   -2.16215   -0.23780
       O    11.52586   -2.02732   -1.24841
      H1    11.92364   -2.80977   -1.62354
       H     6.95627    3.01458    5.00542
       O     7.40480    2.19838    4.75904
      H1     7.27343    1.56148    5.45421
       H    13.67968   -4.64549    3.46784
       O    13.68560   -5.04008    4.43957
      H1    14.50252   -5.60213    4.46121
       H     7.87438   -2.03394   11.16816
       O     7.58057   -1.51836   10.42295
      H1     7.09903   -2.24462    9.98473
       H     5.29563   -6.48118    3.73493
       O     5.67990   -6.10495    4.48829
      H1     5.25410   -5.20424    4.53619
       H     5.46598   -2.20731    1.72334
       O     5.80645   -2.79968    0.99185
      H1     6.63101   -2.39096    0.72391
       H     7.37550   -6.38660    5.16606
       O     8.02235   -6.81955    5.73717
      H1     7.87966   -7.73781    5.64096
       H     4.62240    4.44269    2.19909
       O     4.75547    3.48372    2.32082
      H1     3.80889    3.22265    2.29156
       H     5.46199   -3.68675    8.60457
       O     6.20537   -3.87283    9.21697
      H1     5.92735   -4.49902    9.92002
       H     3.95837   -2.86168    7.36353
       O     4.46514   -3.71916    7.36858
      H1     3.79635   -4.38100    7.60015
       H     7.18850   -4.74735    3.18581
       O     7.67538   -4.46564    2.43342
      H1     7.20394   -3.77385    1.98742
       H    10.74272   -4.57965    6.93874
       O    11.55909   -4.93947    7.24092
      H1    11.93377   -5.57168    6.59972
       H    12.91712   -3.96034    7.80109
       O    13.76564   -3.53807    8.18467
      H1    14.22890   -3.29933    7.39410
       H     4.10015   -0.12950    3.82687
       O     3.61414    0.34735    4.53853
      H1     3.75374    1.27047    4.50665
       H    12.59442    1.71213    5.37508
       O    13.19892    2.41995    5.60968
      H1    13.14510    3.03560    4.86051
       H     6.93011    4.89149    4.45396
       O     6.41349    4.60368    5.17606
      H1     6.63171    5.25512    5.89512
       H    12.83047    5.12950    3.83326
       O    12.70967    4.17882    3.65739
      H1    11.81409    3.96010    3.96694
       H     4.56849   -3.49137    5.63106
       O     4.34904   -3.19346    4.76184
      H1     3.45856   -3.45304    4.55812
       H     9.89679   -0.74827    2.24606
       O     9.17559   -0.43693    2.87699
      H1     8.45355   -0.00786    2.32650
       H     2.19489   -3.26289    2.53005
       O     1.86700   -3.56210    3.42644
      H1     1.14832   -2.92361    3.55676
       H     5.08664    2.90461    0.57674
       O     5.53357    2.75424   -0.27365
      H1     5.23331    3.35156   -0.98775
       H    10.62222   -4.88533    0.48570
       O     9.82880   -4.85750   -0.07890
      H1    10.21252   -4.91906   -1.01175
       H    14.06763   -3.66653    5.15503
       O    14.45165   -2.82528    5.46119
      H1    15.33384   -2.85912    5.09281
       H     7.35794   -4.97250    8.32047
       O     8.21025   -5.29027    8.03548
      H1     7.96770   -5.85746    7.34589
       H    11.84592   -1.79595    2.36807
       O    11.62063   -2.06438    1.46484
      H1    11.79533   -3.04813    1.60522
       H    13.43840    1.05859    8.09551
       O    13.42554    0.28735    7.48652
      H1    14.17487    0.34042    6.81105
       H     1.70315    0.21967    4.59632
       O     0.77764    0.28130    4.50876
      H1     0.36792   -0.58928    4.44575
       H     7.04267   -0.16631    6.28480
       O     6.96710    0.50724    6.97828
      H1     7.73657    0.43717    7.55736
       H     6.49624    1.64268    1.43893
       O     6.70325    1.11083    2.16774
      H1     6.67595    1.64040    3.00518
       H    12.69420   -5.52437    1.67271
       O    12.09129   -4.78151    1.93729
      H1    11.70110   -5.00855    2.78673
       H    11.66362    1.01632    0.88719
       O    10.82913    1.12455    1.36295
      H1    10.69510    2.08750    1.35123
       H     9.31141   -4.58227    3.26194
       O    10.08432   -4.68782    3.83357
      H1    10.18935   -5.70993    3.95898
       H    13.56236   -1.40019    4.66510
       O    13.05653   -1.14521    3.87952
      H1    12.52176   -0.41172    4.19419
       H     9.35823   -0.42138    7.98895
       O     9.01592    0.20028    8.65010
      H1     8.55646   -0.26796    9.35890
       H     5.50590    1.38451    7.65435
       O     4.58291    1.60450    7.73044
      H1     4.52431    2.43473    8.19605
       H     8.50805   -2.41532   -1.73909
       O     8.79890   -2.42379   -2.65367
      H1     9.74833   -2.17782   -2.46627
       H    11.76376   -0.45858    7.17037
       O    10.91728   -0.79589    6.87708
      H1    11.13186   -1.70145    6.67638
       H    15.03232   -1.57453    1.65167
       O    14.87721   -0.68924    2.04039
      H1    14.44788   -0.87882    2.91979
       H     3.90159   -0.64504    6.28177
       O     3.46830   -1.15682    6.97748
      H1     3.41607   -0.52135    7.65834
       H     8.21188   -2.37460    5.60664
       O     7.69539   -1.59859    5.26759
      H1     8.12495   -1.24704    4.50408
       H    11.24284    3.77571    7.12900
       O    11.18233    4.07502    8.02847
      H1    10.34072    3.64929    8.27714
       H     2.44392   -2.64526   -0.07471
       O     2.86408   -3.29087    0.55592
      H1     3.62868   -2.81364    0.85330
       H     9.19709   -6.80412    0.81177
       O     8.33510   -6.91146    1.26135
      H1     8.05210   -5.99116    1.32625
       H     8.86234   -4.00012    6.46103
       O     9.37493   -3.34105    6.01548
      H1     9.75973   -3.78820    5.23309
       H    10.96372    0.18854    4.98776
       O    11.29114    0.82653    4.36856
      H1    10.71750    0.79619    3.61085
       H     3.94025    2.76138    6.36535
       O     3.78081    3.32496    5.61733
      H1     4.60275    3.69996    5.34634
       H     4.36639    0.92555    0.08654
       O     3.75339    0.41511   -0.46228
      H1     3.56086   -0.41971   -0.03257
       H     8.53169    3.54525    9.84747
       O     9.32326    2.98925    9.62703
      H1     8.98095    2.08712    9.39620
       H     9.34308   -3.98979    9.25594
       O     9.90154   -4.09437   10.04588
      H1     9.49169   -3.55927   10.81667
       H     7.26981    3.40585   -0.38796
       O     8.13471    3.86226   -0.38967
      H1     8.82631    3.51207    0.21318
       H    10.40923    2.84840    4.75762
       O    10.01560    3.69949    4.59913
      H1     9.09512    3.48227    4.61579
       H     9.59163    0.69696   -1.23067
       O     8.99828    0.55844   -0.47801
      H1     9.61703    0.63480    0.30155

