162
frame 3 | Written by MDAnalysis XYZWriter (release 2.4.3)
       H    -8.00293   -8.81603  -17.45159
       O    -8.00155   -9.57333  -18.06486
      H1    -7.82601   -9.26290  -18.95928
       H    -9.67491  -11.72432  -18.13977
       O   -10.61901  -11.60808  -18.41532
      H1   -10.73069  -10.85335  -19.03451
       H    -6.04770  -19.64301  -16.70692
       O    -5.85578  -18.74599  -16.47231
      H1    -5.04296  -18.69655  -15.98522
       H    -5.04408  -11.84405  -16.02373
       O    -4.69917  -12.72075  -15.63925
      H1    -4.26222  -13.27605  -16.34086
       H     0.91139  -19.19525  -15.72749
       O     1.84183  -18.99304  -15.55734
      H1     2.30903  -19.43581  -16.24499
       H     0.52684   -9.86538  -12.03719
       O     0.81602   -9.52926  -12.89868
      H1     0.53873  -10.16681  -13.61997
       H    -4.37491  -18.61931  -14.19023
       O    -4.04566  -17.86660  -14.61910
      H1    -3.33622  -17.47466  -14.07546
       H     3.33199  -17.03476  -16.71444
       O     4.27126  -17.34143  -16.82435
      H1     4.44074  -18.13965  -16.28401
       H    -2.05410  -11.28038  -17.29481
       O    -1.48139  -12.04000  -17.58192
      H1    -1.66466  -12.15343  -18.54823
       H     5.40573  -12.82948  -15.39672
       O     5.41419  -13.62542  -15.94515
      H1     5.41404  -14.35382  -15.34780
       H    -5.34850  -14.90262  -11.81294
       O    -4.99199  -14.05329  -12.07975
      H1    -5.77568  -13.48403  -12.08401
       H     2.44183   -4.92604  -19.35582
       O     2.44884   -5.78128  -18.87813
      H1     2.98269   -6.30499  -19.46753
       H    -5.87907   -9.21869  -14.64840
       O    -5.92744   -9.86195  -15.36055
      H1    -6.84635  -10.02250  -15.53215
       H    -5.09896  -16.43620  -14.73520
       O    -5.63903  -15.62597  -14.93227
      H1    -5.04772  -14.84741  -14.72966
       H    -8.10020  -12.37903  -14.55757
       O    -8.93726  -12.20516  -15.04283
      H1    -8.66992  -12.19589  -15.99811
       H    -1.77485  -16.85287  -12.01359
       O    -1.71088  -17.22864  -12.88457
      H1    -1.03294  -17.92640  -13.00809
       H    -3.79934   -8.95924  -12.23054
       O    -3.69090   -9.04403  -11.26659
      H1    -3.17967   -8.26092  -11.00743
       H     2.42235  -11.19269  -17.63133
       O     2.08965  -10.64636  -16.90946
      H1     2.82007  -10.09562  -16.51865
       H     0.81041  -15.83791  -14.59627
       O     1.53021  -16.22334  -15.12349
      H1     1.50396  -17.18580  -14.93780
       H     1.42729  -15.95593  -16.89056
       O     1.66381  -16.16780  -17.79494
      H1     2.32999  -15.53616  -18.08846
       H    -2.50216  -18.68844  -18.21725
       O    -2.33941  -19.07771  -19.13338
      H1    -2.37310  -18.44793  -19.83265
       H    -5.70921  -11.81699  -13.85056
       O    -6.49877  -11.91748  -13.28905
      H1    -6.70570  -11.10171  -12.84613
       H    -3.58067   -5.82865  -16.78269
       O    -4.20124   -5.08494  -16.64687
      H1    -3.77616   -4.25608  -16.91327
       H    -2.54915  -13.82465  -17.20726
       O    -3.32161  -14.33987  -17.41337
      H1    -3.13816  -15.26319  -17.25932
       H     1.19733  -13.46116  -15.85584
       O     0.72954  -13.51902  -16.67758
      H1    -0.15741  -13.09911  -16.57680
       H    -7.21746   -6.70044  -17.62010
       O    -7.67849   -7.23479  -16.89850
      H1    -8.41300   -6.65670  -16.64528
       H    -4.04773   -9.52389  -17.05340
       O    -3.23103   -9.45803  -16.56423
      H1    -3.41080   -9.37478  -15.58689
       H     0.32854  -13.89226  -12.78013
       O     0.41149  -13.72195  -13.71358
      H1    -0.42785  -13.34414  -13.83559
       H    -1.24313   -7.75038  -14.67051
       O    -1.02565   -7.50304  -13.74736
      H1    -0.41323   -8.16561  -13.38027
       H    -0.97029  -10.88991  -10.77448
       O    -0.03563  -10.77860  -10.42809
      H1     0.31250  -11.69634  -10.45798
       H     2.44446   -9.05666  -18.89005
       O     1.99608   -9.23078  -19.73674
      H1     2.61111   -9.10538  -20.48397
       H    -3.54178   -7.97504  -13.97190
       O    -3.25632   -8.87227  -14.01061
      H1    -2.31187   -8.74984  -14.02965
       H    -5.14489  -11.69535  -18.41921
       O    -4.74903  -10.83049  -18.54020
      H1    -5.52080  -10.34747  -18.91402
       H     4.14804  -16.27293  -13.12585
       O     3.15723  -16.23655  -12.92326
      H1     2.68059  -16.17252  -13.78152
       H     3.19193  -13.27890  -18.40372
       O     3.74563  -13.96849  -18.14733
      H1     4.01415  -13.94112  -17.20613
       H     1.30696  -12.14066  -19.01711
       O     2.16066  -11.78503  -19.29646
      H1     2.00595  -10.83808  -19.38708
       H     5.58868  -10.34835  -13.69442
       O     5.13773  -11.09314  -14.16033
      H1     4.34119  -11.14922  -13.70040
       H    -1.85761  -16.97467  -17.23163
       O    -2.80596  -17.00760  -17.06565
      H1    -2.91802  -17.18829  -16.12700
       H    -2.64011  -10.59291  -11.38319
       O    -2.28797  -11.51785  -11.59382
      H1    -2.65819  -12.20025  -10.98097
       H    -1.54227   -5.22427  -19.09974
       O    -2.46287   -5.18859  -19.26953
      H1    -2.59007   -4.49629  -19.94014
       H    -8.87960  -17.78855  -17.15383
       O    -8.71912  -16.79902  -17.17973
      H1    -7.76426  -16.72198  -17.40423
       H    -5.79887  -16.96831  -17.89372
       O    -6.06958  -16.06324  -17.84410
      H1    -5.99176  -15.84279  -16.91685
       H    -3.22723   -5.72865  -14.64822
       O    -3.76644   -6.24165  -14.01518
      H1    -4.73099   -6.13991  -14.34272
       H     4.47386   -8.30949  -15.33976
       O     4.38875   -9.15086  -15.80323
      H1     4.71879   -9.90490  -15.18405
       H    -6.02189  -14.43610  -18.71429
       O    -5.98713  -13.62239  -19.23086
      H1    -5.03681  -13.54806  -19.33311
       H    -0.15465  -19.43548  -17.46873
       O    -0.32390  -18.54091  -17.15031
      H1     0.57070  -18.12755  -17.20064
       H    -5.42494   -5.74194  -18.25760
       O    -6.13506   -6.22662  -18.73101
      H1    -5.75325   -6.78568  -19.40054
       H    -0.41543   -7.32323  -18.99316
       O    -0.19062   -6.69861  -18.27177
      H1     0.76612   -6.66950  -18.34789
       H    -2.96905  -12.19137  -14.53242
       O    -2.02529  -12.32303  -14.31832
      H1    -2.07140  -12.22439  -13.35483
       H    -7.42673  -12.58888  -18.10198
       O    -8.17018  -12.18303  -17.69870
      H1    -8.17901  -11.28427  -17.98027
       H    -2.40475   -7.91241  -16.43984
       O    -1.98054   -7.03002  -16.33686
      H1    -1.39799   -6.93926  -17.08575
       H    -0.00199   -5.88964  -14.00303
       O     0.26025   -4.97571  -14.04939
      H1     0.69803   -4.86216  -14.90523
       H    -0.70391  -11.09471  -15.08039
       O    -0.04191  -10.40757  -15.17913
      H1     0.69475  -10.63546  -15.79379
       H     2.97878  -11.97554  -12.25202
       O     3.10085  -11.03872  -12.49188
      H1     2.40932  -10.71340  -13.08610

