162
frame 6 | Written by MDAnalysis XYZWriter (release 2.4.3)
       H   -18.66407    1.43999   -4.13517
       O   -18.52817    2.35870   -4.26103
      H1   -17.71646    2.53109   -3.76501
       H   -16.86445    5.12475    7.68506
       O   -16.23913    4.51695    7.24356
      H1   -15.45910    4.75276    7.79689
       H   -16.28728   -4.83127   -1.59739
       O   -16.95673   -4.11556   -1.72589
      H1   -17.29746   -4.28679   -2.56764
       H   -14.72522    1.10152    4.57892
       O   -15.09331    0.29008    4.16762
      H1   -15.98530    0.45991    3.95122
       H   -16.71895    2.89265    7.48630
       O   -17.26782    2.20253    7.88932
      H1   -17.97265    2.69522    8.37579
       H   -14.10249    4.10491   -1.60229
       O   -13.79082    4.51636   -2.40671
      H1   -13.98418    5.45348   -2.25278
       H   -19.73713    6.25260    0.67362
       O   -19.24094    5.89014    1.42797
      H1   -18.30695    5.95437    1.23913
       H   -18.00588   -4.72900   -0.32459
       O   -18.52677   -5.10611    0.36167
      H1   -19.15103   -4.37504    0.55588
       H   -14.41606    8.21530   -1.63784
       O   -13.69432    7.54707   -1.61046
      H1   -13.04536    7.71205   -0.92253
       H   -17.94854    0.09865    2.84253
       O   -18.04790   -0.12011    3.76459
      H1   -18.92084    0.24068    3.97484
       H   -13.36609   -2.94742   -1.52971
       O   -12.50346   -3.13348   -1.86329
      H1   -11.97368   -3.08991   -1.09167
       H   -14.97186    4.11255    4.28081
       O   -14.61823    4.03019    5.17779
      H1   -15.36311    4.36872    5.70756
       H   -16.17474   -2.27233   -3.51203
       O   -16.01667   -1.39741   -3.83916
      H1   -15.19613   -1.33130   -4.29818
       H   -10.60142    0.40395    3.07178
       O   -10.53472    0.90835    2.26118
      H1   -10.32849    0.28122    1.58704
       H   -13.56227   -1.09079    2.71222
       O   -13.62125   -1.41258    1.77294
      H1   -14.22501   -2.16329    1.81316
       H   -11.48858   -0.61365    4.80272
       O   -10.68663   -0.09336    4.87110
      H1   -10.71809    0.45314    5.66140
       H   -17.11816   -1.31382    0.86352
       O   -17.94652   -1.00487    1.20656
      H1   -18.13071   -1.50550    2.05391
       H   -13.41467   -2.65779    4.53859
       O   -13.20764   -1.78832    4.95412
      H1   -13.97675   -1.23778    4.98525
       H   -15.98476    4.27707   -4.66645
       O   -15.30282    3.63038   -4.84387
      H1   -14.90913    3.44924   -3.97061
       H   -18.47490   -1.67332   -6.42281
       O   -18.56136   -1.69147   -5.49077
      H1   -17.67968   -1.63006   -5.09955
       H   -14.51999   -3.96671    2.73767
       O   -15.22416   -3.75026    2.05782
      H1   -15.24281   -4.41664    1.33474
       H   -12.48201   -1.15179   -4.36843
       O   -13.17964   -0.61773   -4.81027
      H1   -12.76916    0.21175   -5.15162
       H   -18.54174    6.92558    3.10579
       O   -18.65724    7.72632    3.63973
      H1   -17.75413    7.92867    3.99160
       H   -14.58578    5.00105    2.49240
       O   -15.39388    4.49798    2.63440
      H1   -15.27154    3.89762    1.89258
       H   -12.31552    5.25856    3.08722
       O   -12.95737    5.65469    2.47425
      H1   -12.58238    5.26437    1.67657
       H   -12.37827   -4.68617    4.33957
       O   -13.26681   -4.37544    4.05242
      H1   -13.87537   -4.83191    4.67284
       H   -15.52264    2.09860   -5.79554
       O   -15.90514    1.19785   -5.93194
      H1   -15.51711    0.81386   -6.71596
       H   -10.63214    0.28365   -1.71465
       O   -11.13516    0.39243   -2.54964
      H1   -10.83736    1.20112   -2.99746
       H   -19.93410    5.64308   -2.26815
       O   -18.95589    5.58502   -2.20591
      H1   -18.61257    5.78229   -3.07320
       H   -19.09163   -2.02691    7.02559
       O   -18.93103   -1.11397    7.37554
      H1   -18.09032   -0.82230    7.02294
       H   -11.04880    4.17313    1.45036
       O   -11.59669    4.11248    0.64135
      H1   -11.81835    3.15732    0.61483
       H   -11.35873   -3.68740    1.13859
       O   -11.26074   -2.78624    0.79808
      H1   -12.04720   -2.28807    1.07495
       H   -17.53912   -4.96509    4.41694
       O   -17.58944   -4.05154    4.21755
      H1   -16.69191   -3.92581    3.82063
       H   -16.99722   -1.32039    5.08127
       O   -16.80978   -1.98414    5.78062
      H1   -17.20165   -2.81814    5.44954
       H   -19.29534    3.73171    1.87014
       O   -19.00747    2.97042    2.34001
      H1   -18.16013    3.23411    2.73117
       H   -19.46735   -0.57193   -1.77423
       O   -19.59384   -1.13158   -1.00731
      H1   -18.91118   -0.88199   -0.32303
       H   -14.21975    5.68174    5.76226
       O   -14.12593    6.62334    5.97907
      H1   -13.99331    6.72134    6.91994
       H   -12.88615    1.09135   -0.17075
       O   -12.51247    1.65438    0.55672
      H1   -11.85667    1.12667    0.99552
       H   -12.09203    2.65734   -4.69687
       O   -11.68662    3.17050   -3.98776
      H1   -12.41471    3.46771   -3.41316
       H   -12.96452    0.09934   -2.05637
       O   -13.74863    0.09380   -1.45722
      H1   -14.38597    0.65993   -1.93942
       H   -14.11156    7.32996    2.31255
       O   -14.85489    7.90983    2.32857
      H1   -15.45506    7.62589    1.59318
       H    -9.76120    5.02134    3.59904
       O   -10.14476    4.39942    2.91978
      H1    -9.39271    3.78361    2.86487
       H   -17.11550   -5.81680    1.62996
       O   -16.42752   -6.39704    1.88591
      H1   -16.55515   -7.27351    1.53846
       H   -17.82659    6.42845   -5.10873
       O   -17.56602    5.60344   -4.60806
      H1   -18.25932    4.97648   -4.79935
       H   -10.92876   -1.00459   -3.38526
       O   -10.74559   -1.86295   -3.90194
      H1   -11.06739   -2.54073   -3.28534
       H   -14.32815    1.78878    0.89606
       O   -15.23311    2.14625    0.63058
      H1   -15.78537    1.38274    0.87514
       H   -18.92307    3.78570   -1.64380
       O   -19.20506    2.95742   -1.31846
      H1   -19.13265    2.39560   -2.10309
       H   -15.68306    1.37856   -3.96457
       O   -15.77642    1.37871   -2.97997
      H1   -16.08130    0.46758   -2.81019
       H   -18.69767    8.30425   -0.46534
       O   -18.00623    8.06644   -1.08526
      H1   -18.33454    7.34732   -1.60277
       H   -15.57227   -2.73892    6.82378
       O   -15.23306   -3.16765    7.63988
      H1   -14.61226   -2.61491    8.09148
       H   -16.05411    5.65529    1.28162
       O   -16.66290    6.28409    0.88988
      H1   -16.62376    6.13737   -0.07197
       H   -10.08327    3.21356   -0.26572
       O    -9.39884    2.64722   -0.49816
      H1    -9.03000    3.08570   -1.28220
       H   -15.85741   -2.65488   -1.21955
       O   -15.07367   -2.30836   -0.83285
      H1   -15.00647   -1.40266   -1.12143
       H    -9.11988   -0.81921   -0.00200
       O    -9.77533   -0.10472   -0.16852
      H1    -9.26412    0.72789   -0.22313

