162
frame 7 | Written by MDAnalysis XYZWriter (release 2.4.3)
       H    17.30906  -13.72428   -6.57272
       O    16.90975  -14.19385   -7.31527
      H1    16.85165  -13.54705   -8.05959
       H    18.44173  -14.84913   -7.97757
       O    19.32537  -15.25243   -8.15680
      H1    19.22431  -16.11962   -8.54822
       H     8.45025  -19.09601   -4.22806
       O     7.73221  -19.67143   -4.44509
      H1     6.97139  -19.07323   -4.47877
       H    20.10671  -18.25721   -3.60162
       O    19.77781  -17.59594   -4.22936
      H1    18.76435  -17.60687   -4.18974
       H    17.06939  -19.74138  -12.29584
       O    16.74704  -18.83521  -12.27944
      H1    15.95526  -18.81448  -11.76836
       H    13.25797  -16.46619   -2.85427
       O    12.47955  -15.94326   -2.76471
      H1    12.23024  -15.69359   -3.65537
       H    13.57568  -17.21760   -5.66738
       O    12.77043  -17.75546   -5.33316
      H1    12.03944  -17.41839   -5.91068
       H    11.18066  -19.47455  -17.14221
       O    10.62207  -19.32582  -16.30249
      H1    10.40322  -18.36885  -16.30928
       H     9.37355  -14.51185   -2.91828
       O     8.51322  -14.52601   -3.35182
      H1     8.83291  -14.44286   -4.29107
       H     8.88917  -18.02480   -1.79231
       O     8.05294  -18.15773   -1.35238
      H1     7.36259  -18.03555   -1.96936
       H    15.85767  -13.50759  -15.72154
       O    15.37430  -14.11811  -15.15390
      H1    16.06699  -14.76768  -14.96235
       H     6.90764  -17.53674   -9.08625
       O     6.82756  -16.65499   -9.54518
      H1     6.12086  -16.79015  -10.20908
       H     5.47768  -16.59835   -6.42601
       O     4.71288  -17.17432   -6.27244
      H1     4.01323  -16.45873   -6.24991
       H    15.11435  -15.89098   -5.82858
       O    15.45254  -16.76735   -5.56625
      H1    15.29405  -17.24788   -6.38711
       H    12.66900  -17.39605  -15.06912
       O    13.11158  -17.75074  -15.81358
      H1    13.46867  -18.64363  -15.63737
       H    14.74431  -17.98944   -1.55818
       O    15.07041  -17.05750   -1.47498
      H1    15.48559  -17.05209   -0.59739
       H    11.76939  -12.80558   -9.34320
       O    10.89285  -12.66647   -9.76885
      H1    10.35485  -13.44842   -9.79614
       H    14.22080  -11.77002   -7.34628
       O    14.57833  -11.07743   -6.72567
      H1    15.53319  -11.11276   -6.90226
       H     6.73694  -14.54436   -7.03160
       O     7.11153  -15.41675   -6.88671
      H1     6.97098  -15.83896   -7.72896
       H    17.07940  -17.34082  -13.84761
       O    16.93112  -16.41140  -14.04320
      H1    17.26200  -15.80769  -13.38667
       H    12.51254  -19.81305   -8.31969
       O    12.97427  -19.34060   -9.03794
      H1    12.57205  -18.46506   -9.09767
       H    13.90875  -13.07133  -11.29496
       O    14.64047  -13.51253  -10.82684
      H1    14.80387  -14.24089  -11.40842
       H     8.32537  -18.99867   -7.85554
       O     9.22453  -18.72855   -7.76119
      H1     9.79920  -19.51861   -7.61956
       H    10.09102  -17.14972   -7.09379
       O    10.70940  -16.48711   -6.72540
      H1    10.23978  -15.70529   -6.53727
       H    13.04808  -18.78473  -11.02735
       O    13.44972  -18.35691  -11.81329
      H1    12.86220  -18.58722  -12.57163
       H     9.23411  -11.39277   -7.48315
       O    10.05577  -11.76457   -7.08711
      H1    10.61639  -11.84513   -7.86268
       H     5.43758  -19.95378  -12.71355
       O     5.36229  -19.66604  -11.80336
      H1     5.10236  -18.75248  -11.88961
       H    12.94606  -16.09284   -9.01627
       O    12.07199  -16.56219   -9.08029
      H1    11.54876  -16.21839   -8.37154
       H    16.83140  -15.36382   -3.25679
       O    16.92653  -14.49174   -2.94583
      H1    16.19061  -14.04486   -3.37757
       H    14.44188  -13.74182   -5.33971
       O    14.48375  -14.21546   -6.18318
      H1    15.33334  -14.30428   -6.57657
       H     9.16765  -15.12680  -10.95042
       O     8.54279  -14.50874  -10.57571
      H1     8.10157  -14.96052   -9.85989
       H     7.09846  -19.55492  -10.19677
       O     6.93260  -19.41423   -9.29803
      H1     5.96826  -19.43382   -9.19480
       H    13.56798  -13.42126   -7.52315
       O    13.39351  -13.00876   -8.44030
      H1    14.09235  -13.30408   -9.06629
       H    10.58430  -19.06949   -2.69590
       O    10.51619  -18.13051   -2.75826
      H1    11.27629  -17.64234   -3.10284
       H    13.47615  -12.68817   -3.18642
       O    14.18114  -12.63558   -3.81479
      H1    14.68633  -11.88017   -3.49313
       H    10.56162  -11.63243  -11.23960
       O    10.60202  -11.17016  -12.08242
      H1    11.28789  -11.56745  -12.62563
       H    12.52194  -12.82408  -14.07137
       O    13.08841  -13.10724  -13.33375
      H1    13.90217  -13.37668  -13.73114
       H    14.98505  -15.95153  -10.16154
       O    14.60804  -16.14595   -9.30671
      H1    15.19718  -16.66645   -8.76767
       H    11.20828  -16.13056  -16.38346
       O    10.31082  -16.48476  -16.25646
      H1     9.91554  -16.63700  -17.18863
       H     9.74777  -18.90023   -9.42334
       O     9.99413  -18.72884  -10.39041
      H1    10.29919  -19.57003  -10.75525
       H    16.94784  -11.41445   -9.36785
       O    16.56523  -12.29589   -9.22921
      H1    16.04541  -12.50235  -10.02450
       H    11.74346  -16.18775  -13.09873
       O    12.45740  -15.88720  -13.66482
      H1    12.42796  -14.94701  -13.44371
       H     7.55888  -14.65960  -13.62027
       O     7.21562  -14.14816  -12.89079
      H1     7.72510  -14.40061  -12.10555
       H    18.55415  -13.51226  -12.28014
       O    18.16875  -13.94776  -13.04361
      H1    18.39777  -13.41766  -13.81805
       H     8.28149  -18.48410  -13.17390
       O     8.13070  -17.62482  -12.75871
      H1     7.51641  -17.76566  -12.04491
       H    15.58682  -16.15279  -12.74246
       O    15.16951  -16.06889  -11.89381
      H1    14.51889  -16.80479  -11.85654
       H    16.47942  -16.94122   -4.38928
       O    17.12401  -17.12654   -3.64296
      H1    16.58986  -17.28390   -2.84320
       H    14.13271  -14.75228  -16.49167
       O    13.36402  -15.25135  -16.85479
      H1    13.50827  -16.17555  -16.62955
       H     8.44235  -14.72738   -6.46338
       O     9.31519  -14.26559   -6.06055
      H1     9.50762  -13.43227   -6.57897
       H     3.94020  -18.59719   -9.01548
       O     4.30939  -19.21027   -8.38997
      H1     4.54124  -18.64409   -7.62718
       H    15.91858  -19.26967   -7.68846
       O    15.62357  -18.39529   -7.92304
      H1    14.82499  -18.63908   -8.46138
       H     8.66388  -15.73546  -15.53356
       O     7.90991  -15.61982  -14.91835
      H1     7.86748  -16.33658  -14.28474
       H    18.24324  -17.31758  -10.69585
       O    18.47060  -17.41338   -9.72064
      H1    18.06825  -18.26526   -9.43249
       H    10.65307  -16.81174  -10.81376
       O    10.29529  -16.33828  -11.58332
      H1     9.65069  -16.94395  -11.94031

