162
frame 5 | Written by MDAnalysis XYZWriter (release 2.4.3)
       H    -3.62217    2.82625   -2.27314
       O    -3.74615    2.19053   -3.01351
      H1    -4.68560    2.02280   -3.03168
       H    -0.88950    3.94439    0.86035
       O    -1.29320    3.55272    0.04245
      H1    -1.77621    2.76615    0.31439
       H    -7.41444    2.04427   -3.64685
       O    -6.63643    2.20188   -3.08175
      H1    -6.74984    1.49156   -2.38591
       H     0.39832    3.15028    2.48139
       O     0.12583    4.09531    2.25866
      H1     0.88832    4.50532    1.80872
       H    -0.44140    5.09230    4.56611
       O    -0.02931    5.17285    5.41301
      H1     0.90669    5.14802    5.26318
       H   -11.97245    9.03404   -0.48439
       O   -11.10754    9.12297   -0.88569
      H1   -10.66029    8.24971   -0.67660
       H    -3.23528    8.64700    0.43779
       O    -4.17639    8.83736    0.62329
      H1    -4.54563    8.90677   -0.28975
       H    -9.89567    6.78588    5.09488
       O    -9.40428    7.00943    4.29242
      H1    -8.55568    7.29817    4.70822
       H    -4.73673    7.47416   -5.23309
       O    -4.95327    8.39590   -5.11048
      H1    -5.66096    8.59075   -5.76348
       H    -4.16172    9.57017   -3.57811
       O    -4.10368   10.31268   -3.01440
      H1    -4.88841   10.20740   -2.46700
       H    -8.12592   10.47388   -0.04136
       O    -8.90818   10.86232    0.27378
      H1    -9.58953   10.17083    0.26294
       H    -6.47962    4.75683    1.29692
       O    -6.85298    4.36926    0.51014
      H1    -7.42711    3.64785    0.83529
       H    -4.43871    5.90380   -3.40418
       O    -4.28630    6.07730   -2.47204
      H1    -4.45734    5.24400   -2.01672
       H    -4.42035    7.10112    0.86107
       O    -4.36297    6.13710    1.01769
      H1    -3.57244    5.94932    1.51045
       H     0.42775    7.22972    0.71169
       O     1.22546    6.74159    0.99024
      H1     1.65270    7.39271    1.56705
       H    -2.64440    5.50171   -2.04458
       O    -1.85483    4.98367   -2.30309
      H1    -1.60999    4.43983   -1.51944
       H    -6.96201    8.22644    1.59907
       O    -7.48898    8.28611    0.84908
      H1    -6.93635    8.37024    0.12419
       H    -8.81611   13.03335    2.62740
       O    -8.54255   12.05549    2.68946
      H1    -8.67828   11.56268    1.86080
       H    -4.58088    2.67843    0.88569
       O    -4.74959    2.24967    1.67157
      H1    -5.05113    1.39537    1.48131
       H    -4.07641   10.23845    1.81902
       O    -3.81085   10.96101    2.38625
      H1    -4.63228   11.41535    2.63278
       H    -2.04846   10.84104   -0.84526
       O    -1.72273   10.22262   -1.55755
      H1    -2.48531   10.01555   -1.99993
       H     1.85522    7.05597   -1.04877
       O     2.54196    7.14171   -1.79238
      H1     2.06582    6.71593   -2.49878
       H    -6.85644    8.61032    4.03725
       O    -6.07299    8.47243    3.54402
      H1    -5.34004    8.53365    4.14614
       H    -7.05349    3.07304    3.55743
       O    -7.23627    2.53948    2.75203
      H1    -6.36082    2.44963    2.27318
       H    -4.39191   12.09680   -3.58540
       O    -4.65683   12.93701   -3.94529
      H1    -5.67471   12.88988   -3.99246
       H    -1.61700    4.78968    2.81214
       O    -2.36304    5.37739    3.08421
      H1    -2.97663    4.80408    3.51527
       H    -2.23710    6.66158    7.71216
       O    -2.04267    6.59087    6.76480
      H1    -1.18466    6.18040    6.79027
       H    -5.32276    5.29736   -5.50867
       O    -4.45452    5.66453   -5.21291
      H1    -3.94212    4.89221   -5.31757
       H    -7.66792    6.80879    6.44460
       O    -7.34156    7.59957    6.02055
      H1    -7.76354    8.34340    6.53351
       H    -5.74372   12.83369    3.79942
       O    -5.94667   12.76742    2.85505
      H1    -6.87180   12.51939    2.81199
       H    -5.65652   12.09060   -1.17428
       O    -5.94040   11.16027   -0.88110
      H1    -5.48637   11.04720   -0.06639
       H    -4.86860    5.84199    7.46968
       O    -5.45763    5.15380    7.19004
      H1    -5.00907    4.76759    6.44018
       H    -1.59343    8.98378    3.57371
       O    -1.55370    9.45754    2.69490
      H1    -2.33868   10.02218    2.71534
       H    -1.18059    2.08541   -1.99471
       O    -0.63113    1.86317   -2.76242
      H1     0.16003    2.35482   -2.51364
       H    -1.11447   11.48353    4.64712
       O    -0.53776   11.67488    3.85263
      H1    -0.67577   10.89739    3.27438
       H    -3.16482   11.95457    0.91492
       O    -2.89611   12.25570    0.04263
      H1    -2.46750   13.07229    0.26571
       H    -1.06173    8.51685    1.21861
       O    -1.12239    8.01458    0.39483
      H1    -1.08443    8.66399   -0.30547
       H    -9.86262   10.43189    3.14748
       O   -10.32400    9.78362    3.66146
      H1   -10.14608    8.90821    3.31551
       H    -7.62697    4.58884   -1.26321
       O    -8.09439    4.27876   -2.04153
      H1    -7.50989    3.65370   -2.47375
       H    -2.50513   11.02000    6.15000
       O    -3.04362   11.24023    5.40008
      H1    -3.75962   11.90389    5.58933
       H    -9.75021    4.99759    3.90450
       O   -10.24276    4.16532    3.86989
      H1    -9.63476    3.50939    4.18208
       H    -2.65004    0.66062    0.07366
       O    -2.33879    1.18281    0.86860
      H1    -3.12614    1.33016    1.39914
       H     0.41516    8.20962    4.06753
       O    -0.12385    8.11314    4.86054
      H1    -0.68463    7.34510    4.67007
       H    -5.42326    4.03065   -0.52166
       O    -4.46469    3.90421   -0.71190
      H1    -4.05408    4.54466   -0.10890
       H    -4.92757    4.73398    4.33314
       O    -4.11854    4.32785    4.70221
      H1    -4.29136    3.36409    4.57673
       H    -6.96735    7.69016   -2.29812
       O    -6.29957    8.08281   -1.71977
      H1    -5.52958    7.51061   -1.77289
       H    -5.50850    6.05364    2.42271
       O    -6.09265    5.55919    3.05538
      H1    -6.31723    6.23752    3.76588
       H    -9.98135    5.76455   -0.30224
       O    -9.61572    6.61331   -0.53957
      H1    -8.98680    6.91184    0.14190
       H    -8.39467    6.03879   -3.03286
       O    -8.52648    7.05619   -3.14969
      H1    -8.94601    7.21734   -2.28351
       H    -2.66352    2.95955   -4.22656
       O    -2.24232    3.67280   -4.74370
      H1    -1.76185    4.23732   -4.14157
       H     0.95851    9.23838   -3.09303
       O     0.18497    8.65329   -3.32400
      H1    -0.45892    9.16418   -2.79512
       H    -7.37417    9.39851   -3.81717
       O    -8.08398    9.73437   -4.43021
      H1    -7.77588    9.37847   -5.24701
       H    -9.66567    3.72943    0.56402
       O    -9.14155    3.05813    0.03513
      H1    -8.72084    3.51874   -0.75870
       H    -3.12283    8.00634    5.96059
       O    -3.82915    8.55165    5.58322
      H1    -3.42797    9.43698    5.56839

