162
frame 3 | Written by MDAnalysis XYZWriter (release 2.4.3)
       H    14.08955  -12.92769    4.43287
       O    13.40935  -12.67165    3.78926
      H1    12.70072  -13.30779    3.85709
       H    15.84983  -14.10347    0.73249
       O    16.05863  -13.25811    0.32489
      H1    16.41939  -13.63942   -0.49596
       H    10.63757  -13.78318    3.40679
       O    11.18161  -14.28564    4.04033
      H1    11.38754  -15.10943    3.53073
       H    18.17094  -12.31347    0.90915
       O    18.78708  -11.59786    0.68261
      H1    19.22725  -11.48309    1.53881
       H    13.67968   -4.64549    3.46784
       O    13.68560   -5.04008    4.43957
      H1    14.50252   -5.60213    4.46121
       H    13.14782  -10.47478   -0.35559
       O    12.71345   -9.67596   -0.52701
      H1    12.01455   -9.98591   -1.19850
       H    17.26948  -10.29075    0.82034
       O    16.89134   -9.40594    0.90543
      H1    16.34457   -9.32779    1.68929
       H    13.57155  -12.43239    1.65199
       O    13.77856  -12.09745    0.75330
      H1    14.65511  -12.51406    0.57761
       H     8.58059  -14.52789    5.86247
       O     9.49273  -14.48068    6.23252
      H1    10.03535  -14.20518    5.50582
       H    17.96632  -11.56657    3.51844
       O    17.01110  -11.59785    3.39615
      H1    16.63390  -10.73950    3.62583
       H    18.90156  -11.44919    7.62251
       O    18.12693  -11.31384    8.24109
      H1    18.33820  -11.71020    9.08911
       H    15.79611  -12.99896    6.10573
       O    15.87278  -13.44214    5.24671
      H1    16.31462  -12.80445    4.66222
       H    13.47444   -9.25771    6.69956
       O    13.31657  -10.19474    6.84973
      H1    14.12447  -10.66815    6.94703
       H    14.67621   -9.49837    3.54932
       O    15.43457   -9.10838    3.01137
      H1    15.67832   -8.35602    3.54611
       H    18.54894  -18.27240    2.72902
       O    18.94182  -18.98140    3.21028
      H1    18.23355  -19.40031    3.67543
       H    13.82511  -13.30471    9.34036
       O    13.50022  -12.57320    8.82605
      H1    12.63712  -12.95021    8.56161
       H    12.95608  -11.08202    3.75386
       O    12.84559  -10.09152    3.91159
      H1    12.65998  -10.03453    4.86025
       H    16.94250   -6.54267    4.54087
       O    15.99070   -6.64182    4.77850
      H1    15.99796   -7.18458    5.54869
       H    12.72544  -13.51032   -0.26687
       O    11.93547  -13.81140   -0.70943
      H1    11.77823  -14.68870   -0.37721
       H    14.54826   -8.24515    9.57397
       O    14.56108   -9.20386    9.46544
      H1    13.83821   -9.42798    8.83871
       H     9.92344  -10.17131    2.45808
       O    10.25029  -10.41109    3.33560
      H1    11.22183  -10.18622    3.36322
       H    16.76609  -14.59644   -2.47717
       O    17.02171  -13.74095   -2.16985
      H1    16.49294  -13.07501   -2.62759
       H    14.72531   -5.20180    7.75417
       O    15.60103   -5.54966    8.07481
      H1    15.79394   -6.37221    7.59304
       H    14.94402  -12.02609    8.08092
       O    15.52450  -11.68602    7.38311
      H1    16.48253  -11.71069    7.62166
       H    17.02426  -18.30802    9.36738
       O    17.37360  -19.07565    9.83651
      H1    17.05611  -18.97766   10.79460
       H    14.42258  -15.56336   10.83710
       O    14.59596  -14.99472    9.98856
      H1    15.44722  -14.53088   10.15681
       H    12.38802   -7.44279    6.46293
       O    13.21903   -7.38034    5.91544
      H1    12.86470   -7.00648    5.08958
       H    18.20757   -8.60915    1.72405
       O    19.00529   -8.22136    2.19915
      H1    19.49675   -7.73616    1.49544
       H    16.36849  -16.33564    4.71385
       O    15.77015  -15.89541    4.10488
      H1    15.62334  -15.01839    4.39056
       H    14.04845   -7.51957    1.91057
       O    13.86580   -6.83073    1.31264
      H1    14.49266   -6.85552    0.60285
       H    14.31464  -11.88564   11.41212
       O    13.38613  -12.14955   11.45364
      H1    13.07301  -12.16360   10.55751
       H    13.14141  -16.02243    8.16158
       O    13.22663  -16.83693    7.72435
      H1    13.62442  -17.33031    8.44768
       H    12.44014  -19.63532    1.49228
       O    13.03987  -18.85437    1.41309
      H1    13.96172  -19.08489    1.72796
       H    18.84041   -6.90906    3.44402
       O    18.70669   -6.31946    4.17365
      H1    18.59348   -5.55983    3.62969
       H    11.24797  -17.91651    3.99459
       O    10.52133  -18.53186    4.11469
      H1    10.77525  -19.12430    4.82483
       H    18.13834  -14.16841   10.22130
       O    17.53520  -14.94287   10.22288
      H1    17.41163  -15.26707   11.14811
       H    14.29208  -18.39321    5.47372
       O    14.60215  -19.24096    5.84720
      H1    14.85324  -19.01472    6.75700
       H    19.63301   -8.48909    7.47192
       O    19.06782   -7.88295    7.96642
      H1    19.12195   -6.97169    7.60393
       H    16.68965  -16.06189    0.95078
       O    15.76663  -15.91170    1.27318
      H1    15.81419  -15.85102    2.25194
       H    17.42770  -16.59596    6.49513
       O    17.89952  -16.68225    5.63701
      H1    18.42988  -17.51229    5.59627
       H    15.78659  -17.96785    1.40751
       O    15.73923  -18.87181    1.81141
      H1    16.11228  -19.49660    1.10588
       H    13.23539  -17.10642    2.72947
       O    13.22993  -16.57010    3.47575
      H1    14.14143  -16.38296    3.77695
       H    16.41158   -8.40748    8.23311
       O    16.42913   -7.98885    7.33717
      H1    17.32601   -7.68529    7.34199
       H    19.39518  -16.63515    0.76198
       O    18.49487  -17.02909    0.78142
      H1    18.44054  -17.40966   -0.12523
       H    16.60043   -6.92340   -0.61352
       O    15.84190   -7.45178   -0.71197
      H1    16.08752   -8.26063   -0.27605
       H    16.97198  -15.98272    8.67459
       O    16.44546  -16.55996    8.11497
      H1    15.56350  -16.22021    8.30820
       H     9.88055  -11.95327    2.51449
       O     9.73652  -12.89591    2.27996
      H1     9.26370  -12.99805    1.44701
       H     8.92952  -17.22072    3.51225
       O     8.87088  -16.31024    3.29356
      H1     9.70142  -15.98664    3.73619
       H    10.18876  -16.13587    6.61091
       O    10.49211  -17.03182    6.60837
      H1    11.42106  -17.12826    6.73273
       H    16.99180  -10.38575   11.10710
       O    16.12832  -10.85606   11.23330
      H1    15.45783  -10.23000   11.00170
       H    18.92356  -11.35689   -2.77464
       O    19.15697  -10.58358   -2.30956
      H1    19.12812  -10.80330   -1.37622
       H    19.50088   -8.40414    9.58136
       O    19.48056   -8.92681   10.44418
      H1    19.79552   -9.81469   10.09679
       H    10.22069  -12.72182    9.09721
       O    10.58408  -12.60107    8.21150
      H1     9.95351  -13.03304    7.66554
       H    10.02411   -9.11231    7.88908
       O     9.53989   -9.94519    8.02013
      H1    10.16969  -10.70051    8.10104

