162
frame 0 | Written by MDAnalysis XYZWriter (release 2.4.3)
       H   -15.04700   -5.86086    9.32931
       O   -15.70501   -6.53980    9.28091
      H1   -16.53341   -6.12539    8.96906
       H   -15.75084  -13.80782    8.57393
       O   -15.68414  -13.93624    7.62819
      H1   -15.67845  -13.03334    7.26725
       H   -16.57198   -4.89390   -0.94643
       O   -16.92451   -5.26730   -1.78488
      H1   -16.42922   -5.03200   -2.50549
       H   -15.59619  -11.34806   -0.77407
       O   -15.17285  -10.75451   -1.41558
      H1   -15.84944  -10.73210   -2.12831
       H   -17.69841  -10.54162   10.55703
       O   -17.49722  -11.27124   11.15353
      H1   -18.12638  -11.25788   11.89438
       H   -16.98786   -7.27328    1.53206
       O   -16.13650   -7.72637    1.39498
      H1   -16.26056   -8.23863    0.61500
       H   -16.40550   -9.10782    3.80477
       O   -15.46444   -9.03869    3.59101
      H1   -15.40148   -8.67228    2.68073
       H   -14.40791   -8.98513    7.45707
       O   -14.94279   -9.15423    8.22591
      H1   -15.11174   -8.26861    8.54693
       H   -19.03053  -12.09502    2.16740
       O   -18.94281  -11.45058    1.41721
      H1   -18.81778  -10.52946    1.76736
       H    -9.93120   -8.03652    2.49154
       O   -10.55659   -7.99888    3.22577
      H1   -10.87180   -8.90870    3.39261
       H   -17.73349   -7.65291   10.50240
       O   -18.06758   -8.42188   10.96754
      H1   -18.94974   -8.57438   10.64310
       H   -18.42700  -16.31768    4.49503
       O   -18.87594  -15.45897    4.47650
      H1   -19.80290  -15.74643    4.36660
       H   -12.84932  -11.12271    9.99125
       O   -12.12453  -11.59649   10.48050
      H1   -12.49642  -12.46410   10.72876
       H   -17.24137   -8.14192   12.56810
       O   -17.01973   -8.02775   13.50072
      H1   -16.02868   -8.07015   13.54603
       H   -17.86618   -8.70719    6.79198
       O   -17.52887   -9.05757    7.61661
      H1   -16.55847   -9.02067    7.66126
       H   -18.40190  -13.97074    3.55857
       O   -18.13070  -13.04716    3.41241
      H1   -17.13597  -13.05360    3.36010
       H   -13.14196   -4.17477    9.59917
       O   -13.28805   -5.15293    9.33663
      H1   -12.65653   -5.17323    8.59269
       H   -10.66062   -4.02461    4.33986
       O   -11.13730   -3.45602    5.03603
      H1   -11.39304   -4.09504    5.78008
       H   -19.31114   -4.38412   -1.56263
       O   -19.87661   -4.55139   -0.79701
      H1   -20.03102   -3.66861   -0.46125
       H   -17.50942  -14.03763    7.16759
       O   -18.42577  -13.96377    6.94430
      H1   -18.59744  -14.54095    6.17503
       H   -14.86040   -4.02135    4.20828
       O   -15.46232   -3.52047    3.62623
      H1   -15.19041   -3.73337    2.71168
       H   -19.28578  -12.40450    7.07756
       O   -19.60789  -11.50953    7.38339
      H1   -18.81495  -10.96223    7.37920
       H   -11.43433  -10.48885    4.97597
       O   -11.15141  -10.52585    4.03737
      H1   -10.52484  -11.29903    3.95996
       H   -17.30529  -11.84850    1.10367
       O   -16.38148  -12.07766    1.09413
      H1   -16.19172  -12.43422    1.99740
       H   -18.56033   -8.17243    4.23958
       O   -17.84924   -8.17570    4.93483
      H1   -17.41558   -7.33639    4.85423
       H   -13.64773   -5.95356    5.02277
       O   -14.16686   -5.21093    5.40336
      H1   -13.74024   -4.72024    6.16244
       H   -14.76196  -11.67648   10.51070
       O   -14.89650  -11.61814    9.52383
      H1   -14.63943  -10.73919    9.23123
       H   -16.21966   -2.09950    6.85072
       O   -16.06027   -2.52336    7.74778
      H1   -15.05280   -2.55327    7.85253
       H   -18.08061  -10.42070   -3.66515
       O   -17.58531  -10.64454   -2.86418
      H1   -17.49885   -9.83617   -2.33372
       H   -16.01070   -7.88482   -1.51015
       O   -16.96945   -7.98218   -1.46840
      H1   -17.24356   -7.07179   -1.57448
       H   -14.22605  -10.51146    3.34988
       O   -13.57251  -11.09349    2.83804
      H1   -12.73198  -10.99799    3.27531
       H   -19.81785   -2.68949    6.96455
       O   -19.45437   -1.84125    6.70025
      H1   -18.83570   -2.03792    6.03546
       H   -12.08423   -9.13156    6.98206
       O   -12.72116   -9.38639    6.27501
      H1   -12.80844   -8.60970    5.76504
       H   -13.37640  -10.39933   -0.75635
       O   -12.46529  -10.12164   -0.43437
      H1   -12.46001  -10.26843    0.47480
       H   -18.01962  -14.82123   -1.13108
       O   -17.17144  -14.41943   -0.83187
      H1   -17.50008  -13.73029   -0.21858
       H   -11.87962   -5.65952    0.80090
       O   -11.25198   -5.27831    1.44052
      H1   -10.55640   -5.00266    0.83790
       H   -17.76025   -4.27705    4.20719
       O   -18.07859   -3.97248    3.33748
      H1   -17.15950   -3.88063    2.98037
       H   -16.47007   -0.48313    5.06612
       O   -16.71599   -1.40669    5.13026
      H1   -16.01987   -1.83669    4.62829
       H   -16.98370   -1.09069    2.19796
       O   -16.13591   -0.96394    1.76515
      H1   -16.15085   -1.30387    0.84117
       H   -14.61646  -13.11702    2.95249
       O   -15.34120  -13.32569    3.56973
      H1   -15.13368  -12.80918    4.36155
       H   -18.07631  -13.35348    8.96686
       O   -18.14801  -13.58055    9.91096
      H1   -17.90400  -12.75253   10.39742
       H   -18.30443   -4.47312    8.77344
       O   -17.55460   -4.73460    8.23045
      H1   -17.05484   -3.90267    8.20285
       H   -12.59471   -7.37818    3.80841
       O   -13.36138   -7.56528    4.36613
      H1   -14.00986   -8.08053    3.89831
       H   -13.72083  -12.77462    0.19941
       O   -13.45436  -13.24659    0.98438
      H1   -13.71119  -14.21591    0.93990
       H   -19.17202   -5.67298    0.57094
       O   -18.61020   -5.99932    1.24833
      H1   -18.43229   -5.21844    1.76676
       H   -13.98526  -13.79660    7.32618
       O   -13.09382  -14.09987    7.10165
      H1   -13.26746  -14.84228    6.51694
       H   -16.88403  -11.09890    6.06714
       O   -16.02613  -11.45278    6.22442
      H1   -15.47995  -10.74326    6.66066
       H   -14.84653  -15.02663    4.51839
       O   -14.49006  -15.65913    5.14190
      H1   -15.21007  -15.87595    5.75945
       H   -10.19734   -8.40087    8.30177
       O   -11.12658   -8.28695    8.37580
      H1   -11.24317   -7.49636    7.84701
       H   -16.12051   -5.08771    5.25408
       O   -17.02504   -5.23354    5.51468
      H1   -17.14173   -5.07564    6.45758
       H   -11.00694   -5.92681    6.45847
       O   -11.43359   -5.47225    7.22352
      H1   -10.63758   -5.13321    7.67225
       H   -13.50823   -2.05364    6.60178
       O   -13.55443   -2.82599    7.21856
      H1   -13.20209   -2.53164    8.06529
       H   -14.42407   -6.98237    0.93703
       O   -13.84209   -6.30867    0.62733
      H1   -13.47409   -6.60168   -0.19887
       H   -15.04743   -4.96766    0.84554
       O   -15.79785   -4.39666    0.89611
      H1   -15.46011   -3.55884    0.58343

