162
frame 10 | Written by MDAnalysis XYZWriter (release 2.4.3)
       H    -8.37331   11.96051  -12.66979
       O    -8.61633   12.82820  -12.97498
      H1    -9.08865   13.18314  -12.24232
       H    -4.18075   13.52840  -10.43675
       O    -4.17443   12.60774  -10.70737
      H1    -3.96685   12.56811  -11.64483
       H    -6.29792   15.76346  -16.26785
       O    -5.45469   15.30426  -16.17382
      H1    -4.95799   15.45922  -16.95072
       H    -2.75304   17.11257  -13.19622
       O    -3.14555   17.90512  -13.56435
      H1    -2.46579   18.10331  -14.20200
       H    -5.06420   17.68385  -14.53333
       O    -5.92868   18.07582  -14.68390
      H1    -6.06887   18.47368  -13.79673
       H    -5.54330   18.81794  -16.46527
       O    -5.21213   19.50975  -17.02329
      H1    -5.98885   19.79780  -17.51236
       H     0.62420   12.25643  -11.73535
       O    -0.34659   12.26578  -11.50938
      H1    -0.66258   11.37882  -11.40361
       H   -10.75573   17.42794  -10.46193
       O   -11.27265   17.65938  -11.24249
      H1   -10.62850   17.62941  -11.94699
       H    -1.98768   17.09324  -17.26777
       O    -1.30705   16.57516  -16.85690
      H1    -1.42477   15.61605  -16.89059
       H    -3.72475   16.79276  -18.52688
       O    -3.93351   15.89689  -18.34470
      H1    -4.39399   15.62822  -19.17879
       H    -1.79936   18.42509   -9.31674
       O    -1.72461   18.05073   -8.43978
      H1    -2.57281   17.60207   -8.36879
       H    -5.98146   13.47575  -16.19638
       O    -6.34806   12.64647  -16.50855
      H1    -6.04488   11.89072  -15.98149
       H     0.11704   18.30540  -14.47369
       O    -0.63089   18.45803  -15.05513
      H1    -0.84991   17.61613  -15.41823
       H    -2.52052   12.94586  -13.52507
       O    -1.67731   13.47626  -13.45873
      H1    -1.06888   13.03451  -12.79690
       H   -11.09358   15.64484  -13.58653
       O   -11.25862   14.67011  -13.34130
      H1   -10.81622   14.11491  -13.99566
       H    -7.27478   18.87216  -18.54977
       O    -7.53684   19.77163  -18.37853
      H1    -7.17772   20.21060  -19.15792
       H    -6.60840   14.11070  -10.88440
       O    -7.17501   14.74528  -10.45533
      H1    -6.70064   14.98930   -9.67560
       H    -8.46196   16.97690  -12.21838
       O    -8.37110   17.55533  -11.42871
      H1    -8.32244   17.07370  -10.61846
       H    -9.54951   17.33883   -7.99250
       O   -10.24155   17.48449   -8.63920
      H1   -11.08141   17.09785   -8.25327
       H    -5.45378   10.95905   -8.56917
       O    -4.99548   11.48670   -7.88033
      H1    -4.82081   12.32331   -8.26430
       H    -7.03546   10.11165  -11.28296
       O    -7.58891   10.37519  -11.98901
      H1    -8.35954    9.78191  -11.87593
       H    -4.42801   11.26987  -13.87435
       O    -4.16217   12.14894  -13.54004
      H1    -4.99838   12.65512  -13.56809
       H   -10.48032    9.60835  -13.72145
       O   -10.38022   10.04053  -14.59177
      H1    -9.62141    9.66177  -14.98781
       H    -7.84960   18.02194   -6.93761
       O    -8.11506   17.13612   -7.11863
      H1    -7.37515   16.49982   -7.31523
       H    -5.77672   19.32246  -11.40912
       O    -6.40315   19.13663  -12.16970
      H1    -7.11498   18.55128  -11.87134
       H    -7.43065   16.96855  -14.39463
       O    -8.11038   16.31325  -14.15645
      H1    -8.21806   15.76583  -14.94380
       H    -6.05069   17.01109  -18.12270
       O    -6.81911   17.06555  -17.50652
      H1    -7.50853   16.57280  -17.91074
       H    -2.14030    9.75800  -10.64942
       O    -2.28589   10.48151  -11.22787
      H1    -2.82133   11.17029  -10.69650
       H   -11.52989   16.51507  -17.49195
       O   -11.11379   15.84572  -16.90353
      H1   -11.56946   14.99423  -17.00518
       H    -4.69020   15.89608   -9.60219
       O    -4.19399   15.16614   -9.89089
      H1    -3.62743   15.39360  -10.64059
       H    -6.38676   14.50176   -7.43851
       O    -6.10615   15.36354   -7.78157
      H1    -5.44720   15.61125   -7.10743
       H    -8.45865   14.46000  -16.97445
       O    -8.47351   14.21627  -16.06774
      H1    -7.67145   13.67920  -16.04621
       H    -8.15696   13.10555  -18.56518
       O    -7.37373   12.60887  -18.82857
      H1    -6.75913   12.54513  -17.99059
       H   -10.02520   15.74762  -18.01292
       O    -9.18057   15.90085  -18.52348
      H1    -9.51192   16.59505  -19.07982
       H   -10.23711   12.22612   -8.93382
       O   -10.28747   11.79995   -8.03785
      H1   -11.10771   12.15867   -7.73013
       H    -3.58862   18.97711  -17.52051
       O    -2.85496   18.57728  -17.99335
      H1    -2.87499   18.98256  -18.87700
       H    -1.55893   13.42328  -15.64620
       O    -2.04008   13.68077  -16.46301
      H1    -2.88857   13.86573  -16.13107
       H    -1.71542   18.07557  -11.74481
       O    -1.48682   18.74812  -11.08479
      H1    -1.86485   19.55738  -11.44972
       H    -7.16198   13.98778  -13.23221
       O    -6.19433   14.21332  -13.33826
      H1    -6.21598   15.20161  -13.35019
       H    -6.92603    9.22606  -13.19415
       O    -6.44530    8.71988  -13.80734
      H1    -7.17741    8.54570  -14.43259
       H   -10.97173   16.52478  -15.26025
       O   -11.09564   17.07171  -14.42886
      H1   -12.02798   17.37399  -14.33391
       H    -6.83584   12.25576   -7.28314
       O    -7.41875   13.02467   -7.15686
      H1    -8.35230   12.81275   -7.52846
       H    -5.27857    9.34432   -9.68214
       O    -6.14470    9.80803   -9.67304
      H1    -6.76623    9.23873   -9.17000
       H   -10.48561   18.94622  -14.84455
       O   -10.47609   19.70771  -15.39231
      H1   -10.57473   20.44242  -14.82203
       H    -3.86421    9.93572  -15.09616
       O    -4.72745   10.22434  -15.46169
      H1    -5.31589    9.77904  -14.88844
       H    -2.21260   15.29241  -12.49973
       O    -2.57961   15.84753  -11.76794
      H1    -2.00013   15.68089  -11.02478
       H    -2.28640    8.80632  -14.18881
       O    -2.41186    9.78055  -14.02219
      H1    -2.51307    9.92774  -13.07847
       H   -11.78062   14.79515  -11.41860
       O   -12.11880   14.89156  -10.52983
      H1   -11.96182   15.80623  -10.40639
       H    -9.59230   12.77090  -15.33760
       O   -10.59934   12.61473  -15.24444
      H1   -10.70078   11.75917  -14.73599
       H    -1.87056   12.86017   -9.68084
       O    -2.01908   13.20758   -8.75782
      H1    -2.52580   14.03269   -8.90779
       H    -0.79560   14.92261   -9.11648
       O    -0.85844   15.67126   -9.71143
      H1    -0.92809   16.42738   -9.13138
       H   -10.39047   13.96119   -9.98533
       O    -9.68178   13.36792  -10.31924
      H1    -8.88532   13.87210  -10.00432
       H    -4.92795   18.81112   -8.62606
       O    -4.53666   17.98619   -8.26041
      H1    -4.16041   18.32243   -7.46088
       H    -3.48991   11.11357  -18.62409
       O    -3.64790   10.48204  -17.93413
      H1    -3.97280   10.88209  -17.14155

