162
frame 8 | Written by MDAnalysis XYZWriter (release 2.4.3)
       H    18.16016  -10.51770   13.29210
       O    18.45474  -11.31650   12.77613
      H1    18.72641  -11.93114   13.50357
       H    17.17268   -2.56767   12.86904
       O    16.98982   -2.73631   13.83305
      H1    17.11795   -1.91301   14.32166
       H    14.97069  -11.33827   12.63360
       O    14.51043  -12.13164   12.73328
      H1    13.85108  -11.89354   13.45484
       H    12.10407   -6.43965    9.20052
       O    11.19496   -6.49505    9.58906
      H1    11.08712   -5.71304   10.17895
       H    17.94213   -3.89016   11.19472
       O    18.12153   -2.92707   11.35755
      H1    18.80332   -2.80212   12.00192
       H    14.12583   -6.32840    9.54040
       O    13.80161   -6.71344    8.68713
      H1    13.85069   -6.01433    8.03264
       H    10.65004  -11.97564   13.96469
       O    10.84493  -11.05567   14.05831
      H1    10.71983  -10.63113   13.18571
       H    11.62845   -9.11306    5.81393
       O    11.92997   -9.94033    6.18436
      H1    12.71579   -9.59805    6.63268
       H    11.89085   -2.47164    6.62728
       O    11.85188   -2.25202    7.57898
      H1    12.60198   -1.59299    7.70377
       H    17.82097  -11.80300   11.00972
       O    17.40796  -11.59276   10.21285
      H1    17.82641  -12.21876    9.61544
       H    12.49098  -11.61202   15.31595
       O    13.40381  -11.40459   15.45873
      H1    13.44869  -10.54000   15.89032
       H    15.77372  -11.55789    9.28723
       O    15.02919  -11.55424    8.66255
      H1    14.41705  -12.15467    9.06445
       H     8.56668   -8.40188   13.96187
       O     9.15213   -7.69638   13.55170
      H1     9.15995   -7.90276   12.61235
       H    15.35252   -2.07397    9.75666
       O    15.35817   -2.13684   10.71772
      H1    16.18310   -2.65585   10.97210
       H    11.39209   -5.97505   14.44408
       O    11.54377   -6.43333   13.63349
      H1    10.87741   -7.11581   13.48174
       H    13.50567   -1.69488   13.24774
       O    13.39509   -0.73230   13.25842
      H1    13.67983   -0.57802   12.30661
       H    10.46340  -10.74814   16.08325
       O    10.42761  -10.44648   17.01744
      H1    10.25838  -11.24203   17.54368
       H    14.22130   -8.15479    7.78636
       O    14.15631   -9.04965    7.41561
      H1    14.03491   -9.73436    8.09025
       H     7.60942   -6.55881    8.30564
       O     8.14048   -5.80850    8.69230
      H1     9.06211   -5.92487    8.46125
       H    13.98827   -8.11180   15.21133
       O    14.12660   -7.84049   14.29315
      H1    13.76196   -6.98396   14.11720
       H     6.45893   -7.19770   11.06114
       O     6.84858   -6.31441   11.17711
      H1     7.32814   -6.12456   10.33676
       H    18.98485  -11.31846   15.97543
       O    18.18046  -10.84882   16.30208
      H1    17.75565  -10.52430   15.47376
       H    15.72518   -4.72525    7.44195
       O    16.40458   -4.38139    8.06386
      H1    16.26625   -4.88848    8.85497
       H    11.78563  -10.95421   10.46968
       O    11.73929  -10.39805   11.25716
      H1    12.63104  -10.08589   11.56189
       H    16.40932   -0.67396   11.20163
       O    16.89831    0.13134   11.13878
      H1    17.77214   -0.11115   10.91624
       H    10.43386   -9.13753   10.88750
       O     9.76063   -8.47122   10.71654
      H1    10.16994   -7.75752   10.20623
       H    11.39901   -5.84119   17.19070
       O    11.13753   -5.30681   16.43268
      H1    11.90031   -4.71092   16.29746
       H    13.40505   -3.90634    7.59887
       O    13.78292   -4.53145    6.95959
      H1    13.52516   -4.05089    6.14613
       H    14.49518   -9.45451   17.34748
       O    13.78103   -9.14663   16.81564
      H1    13.14684   -8.74732   17.42021
       H    19.53781   -4.46208   15.17050
       O    18.80910   -4.60705   14.56598
      H1    18.42368   -3.72902   14.48525
       H    11.62159   -6.88115    5.78449
       O    11.94185   -7.40920    5.00344
      H1    12.72828   -7.09086    4.55526
       H    13.59157   -6.70025   11.82197
       O    14.38767   -6.16265   11.68986
      H1    14.26848   -5.38142   12.27835
       H    11.61442   -1.78890   16.49520
       O    12.51047   -1.46787   16.27150
      H1    12.43352   -1.30585   15.29417
       H     7.93674   -4.72881   14.31938
       O     8.01128   -3.78490   14.19816
      H1     7.91166   -3.46880   15.13566
       H    13.99712   -8.64503   12.58774
       O    14.07187   -9.19854   11.82197
      H1    14.96063   -9.07387   11.53791
       H    13.10095  -14.01020   10.56381
       O    13.78529  -13.29581   10.41125
      H1    14.00451  -12.93544   11.25489
       H    12.23302   -1.86468   10.30972
       O    12.07189   -0.89274   10.39721
      H1    11.29718   -0.86778   11.10225
       H    13.27959   -3.29336   16.35594
       O    13.83598   -4.08673   16.27533
      H1    13.89631   -4.33333   17.23074
       H    17.52958   -8.43622   14.02084
       O    16.95019   -9.19460   14.17733
      H1    16.05988   -8.84665   14.01408
       H    11.04348   -4.79378    6.44247
       O    10.72130   -5.59196    6.91393
      H1    11.10741   -5.51523    7.80486
       H    15.65847   -4.61041   15.67422
       O    16.48524   -5.01923   16.04095
      H1    17.26540   -4.79450   15.54001
       H    17.78175   -6.30883   10.57238
       O    17.03183   -5.73179   10.72959
      H1    16.49158   -6.02029   11.47768
       H    15.76643   -8.67111    6.24426
       O    16.13001   -8.07361    5.59812
      H1    17.07109   -8.16109    5.83093
       H     6.46537   -6.76305   14.36674
       O     7.04113   -6.40714   15.04847
      H1     7.86744   -6.80185   14.79203
       H    18.45984   -6.29087   13.59193
       O    18.75503   -7.10252   13.18687
      H1    19.71777   -7.00093   13.31713
       H    14.00311   -4.06036   14.16390
       O    14.17435   -3.56447   13.37174
      H1    14.95141   -2.99578   13.47682
       H    11.88751   -3.82073   10.53893
       O    12.76119   -3.54872   10.13202
      H1    13.37360   -3.41754   10.81769
       H    17.06699   -9.72239   10.45788
       O    16.68014   -8.90203   10.76883
      H1    16.34560   -8.43327    9.99470
       H    18.77850   -7.71142    8.91577
       O    19.05332   -7.48230    9.78108
      H1    18.34613   -7.73901   10.40300
       H    18.51116   -6.68591   17.57854
       O    17.84333   -6.27780   18.10525
      H1    17.17321   -6.01636   17.48024
       H     9.57052   -4.08800   11.25440
       O    10.36939   -4.65556   11.35165
      H1    10.35950   -5.14222   12.17346
       H     9.60383   -3.00603   14.15034
       O    10.52068   -2.64960   14.10571
      H1    10.42964   -2.04567   13.34559
       H    11.51100  -12.31386    8.44515
       O    11.29065  -11.40500    8.48906
      H1    11.39117  -10.94489    7.66770
       H     9.30718   -9.44962    9.30762
       O     9.00093   -9.94586    8.53757
      H1     9.63376  -10.65788    8.41513

