162
frame 7 | Written by MDAnalysis XYZWriter (release 2.4.3)
       H    13.96786  -12.73873    3.53463
       O    13.20309  -12.53783    3.01898
      H1    12.49360  -13.18433    3.09739
       H    17.30906  -13.72428   -6.57272
       O    16.90975  -14.19385   -7.31527
      H1    16.85165  -13.54705   -8.05959
       H    16.68457  -14.43047    0.20712
       O    16.59040  -13.66540   -0.35266
      H1    16.62002  -14.01315   -1.28719
       H    18.13394   -9.29849   -9.12990
       O    18.05926  -10.09339   -8.58151
      H1    17.88653   -9.80389   -7.69997
       H     8.48041  -11.96847   -0.49531
       O     7.67622  -11.47837   -0.69237
      H1     7.92787  -10.96546   -1.45048
       H    10.75370  -14.10673    1.54566
       O    11.12743  -14.27877    2.43270
      H1    11.20630  -15.26224    2.42621
       H    19.06594  -14.06297    0.41220
       O    19.63436  -13.33599    0.14381
      H1    19.82386  -12.89988    1.03093
       H    14.09562   -9.99646   -0.32838
       O    13.37588   -9.40053   -0.47827
      H1    12.74279   -9.93412   -1.02919
       H    13.25797  -16.46619   -2.85427
       O    12.47955  -15.94326   -2.76471
      H1    12.23024  -15.69359   -3.65537
       H    18.50816   -9.86414   -0.77987
       O    18.23410   -9.34468   -0.01024
      H1    17.39431   -9.79501    0.28537
       H    13.57568  -17.21760   -5.66738
       O    12.77043  -17.75546   -5.33316
      H1    12.03944  -17.41839   -5.91068
       H    13.90580  -12.35625    1.41225
       O    14.26502  -12.19069    0.52416
      H1    15.12644  -12.69525    0.44344
       H     8.17594  -16.58619   -0.27456
       O     8.23482  -15.79580    0.27262
      H1     8.19603  -16.19584    1.18192
       H     9.37355  -14.51185   -2.91828
       O     8.51322  -14.52601   -3.35182
      H1     8.83291  -14.44286   -4.29107
       H     8.01540   -9.26271   -2.92491
       O     8.79506   -9.80164   -2.79394
      H1     9.47717   -9.46286   -3.41480
       H    16.80518  -11.54736   -4.32543
       O    16.56686  -11.05125   -3.51858
      H1    16.10409  -10.16216   -3.70143
       H    15.25347  -10.54435    1.30544
       O    15.85634   -9.76888    1.08802
      H1    16.21788   -9.41182    1.93934
       H    15.11435  -15.89098   -5.82858
       O    15.45254  -16.76735   -5.56625
      H1    15.29405  -17.24788   -6.38711
       H    14.74431  -17.98944   -1.55818
       O    15.07041  -17.05750   -1.47498
      H1    15.48559  -17.05209   -0.59739
       H    12.63489   -6.51224   -1.11546
       O    13.17113   -5.74158   -0.89261
      H1    13.79287   -6.12755   -0.25856
       H    13.17379  -13.01970   -0.56940
       O    12.44535  -13.42099   -1.03056
      H1    12.49067  -14.35898   -0.74431
       H    11.76939  -12.80558   -9.34320
       O    10.89285  -12.66647   -9.76885
      H1    10.35485  -13.44842   -9.79614
       H    14.22080  -11.77002   -7.34628
       O    14.57833  -11.07743   -6.72567
      H1    15.53319  -11.11276   -6.90226
       H    14.36143   -8.85994   -1.90606
       O    14.90650   -8.63626   -2.65851
      H1    15.53913   -7.98378   -2.33693
       H    12.42605  -11.76315   -5.02641
       O    11.62622  -11.20912   -4.92916
      H1    11.08316  -11.30437   -5.73189
       H     7.22480  -15.83995   -2.97212
       O     6.47599  -16.43638   -3.09286
      H1     5.93663  -16.17356   -2.41475
       H    12.09655   -8.44334   -0.97589
       O    11.42792   -7.78742   -1.24953
      H1    11.25935   -8.04763   -2.14118
       H    10.09102  -17.14972   -7.09379
       O    10.70940  -16.48711   -6.72540
      H1    10.23978  -15.70529   -6.53727
       H     9.23411  -11.39277   -7.48315
       O    10.05577  -11.76457   -7.08711
      H1    10.61639  -11.84513   -7.86268
       H    12.94606  -16.09284   -9.01627
       O    12.07199  -16.56219   -9.08029
      H1    11.54876  -16.21839   -8.37154
       H    16.83140  -15.36382   -3.25679
       O    16.92653  -14.49174   -2.94583
      H1    16.19061  -14.04486   -3.37757
       H    13.13948   -9.75652   -5.23883
       O    13.37813   -8.84945   -5.09183
      H1    13.87558   -8.75499   -4.23696
       H    14.09911   -9.94312   -8.34799
       O    14.53524   -9.16179   -8.85071
      H1    14.80055   -8.63847   -8.06406
       H    14.44188  -13.74182   -5.33971
       O    14.48375  -14.21546   -6.18318
      H1    15.33334  -14.30428   -6.57657
       H    14.83081   -8.05402   -6.12023
       O    15.59802   -8.00795   -6.73025
      H1    15.86095   -7.10423   -7.00406
       H    13.56798  -13.42126   -7.52315
       O    13.39351  -13.00876   -8.44030
      H1    14.09235  -13.30408   -9.06629
       H    10.58430  -19.06949   -2.69590
       O    10.51619  -18.13051   -2.75826
      H1    11.27629  -17.64234   -3.10284
       H    13.47615  -12.68817   -3.18642
       O    14.18114  -12.63558   -3.81479
      H1    14.68633  -11.88017   -3.49313
       H    11.16802  -16.43814   -1.08878
       O    10.95536  -16.14004   -0.19486
      H1    10.05980  -15.73328   -0.35324
       H    17.44280  -16.78352    1.33188
       O    16.74341  -16.11707    1.38216
      H1    16.67988  -15.83056    2.29806
       H    18.86402  -13.17309   -5.29755
       O    17.95049  -13.11356   -4.98761
      H1    17.79610  -13.63749   -4.15918
       H    13.90619   -5.80560   -3.31301
       O    14.10216   -5.97329   -4.26590
      H1    13.30613   -5.78821   -4.77433
       H    13.42039   -9.13544    1.55620
       O    13.20312   -9.08572    2.49917
      H1    12.44067   -9.58409    2.69920
       H    11.53749  -16.67238    1.57986
       O    11.41153  -17.05175    2.49180
      H1    10.45929  -17.08848    2.57332
       H    16.94784  -11.41445   -9.36785
       O    16.56523  -12.29589   -9.22921
      H1    16.04541  -12.50235  -10.02450
       H    16.80825   -8.99333   -6.09447
       O    17.44977   -9.70718   -5.88885
      H1    18.08955   -9.31192   -5.26622
       H    17.95518   -6.38272   -1.28306
       O    17.16525   -6.90862   -1.16954
      H1    17.43306   -7.58261   -0.56358
       H    11.53049   -8.50678   -8.00418
       O    10.61821   -8.81384   -7.75920
      H1    10.63623   -9.23299   -6.83778
       H    10.03539  -12.48584    1.06611
       O    10.05631  -13.01251    0.23284
      H1    10.98018  -12.87832   -0.07117
       H    16.47942  -16.94122   -4.38928
       O    17.12401  -17.12654   -3.64296
      H1    16.58986  -17.28390   -2.84320
       H     8.44235  -14.72738   -6.46338
       O     9.31519  -14.26559   -6.06055
      H1     9.50762  -13.43227   -6.57897
       H    11.82259  -11.95659   -1.91312
       O    11.92867  -11.00459   -2.10868
      H1    11.09704  -10.75551   -2.56359
       H    18.13600  -11.05349   -2.64184
       O    18.83932  -11.17059   -2.00269
      H1    18.61537  -11.94027   -1.46232
       H    11.82068   -8.57479   -4.42872
       O    11.11532   -8.26632   -3.80486
      H1    10.43929   -7.88454   -4.35048

