162
frame 9 | Written by MDAnalysis XYZWriter (release 2.4.3)
       H     8.31067    4.31353  -13.83173
       O     7.98756    4.03549  -12.92668
      H1     7.94808    4.84290  -12.44912
       H     7.89801    9.53615  -12.57777
       O     8.75867    9.78249  -12.20282
      H1     8.59793   10.50665  -11.62662
       H    12.40085    9.55473  -13.54718
       O    12.65683   10.27905  -14.14831
      H1    12.85531   10.95529  -13.55279
       H    14.86367    3.19143  -18.07370
       O    15.73359    3.38011  -18.44565
      H1    15.79949    2.97710  -19.32027
       H    12.92700   12.80723  -16.31428
       O    13.74226   13.30984  -16.40832
      H1    14.31117   13.07930  -15.67603
       H    14.22568   -0.10380  -15.76247
       O    14.72774    0.43160  -16.46235
      H1    15.63259    0.54016  -16.14814
       H    13.05785    2.25248  -18.25811
       O    13.26169    2.49566  -17.32316
      H1    13.78038    1.71514  -16.98873
       H     8.39237    1.44542  -16.00487
       O     7.72699    1.68588  -16.66389
      H1     8.19179    2.19965  -17.28632
       H    12.96820    5.49953  -16.31323
       O    13.67589    6.04465  -16.53686
      H1    14.43051    5.59250  -16.19626
       H    12.06605    3.41742  -12.75546
       O    12.58030    3.82824  -12.02197
      H1    13.42477    4.09433  -12.39344
       H    10.27355   -0.90169  -17.61017
       O    10.97427   -0.89548  -16.91917
      H1    10.78911   -1.61902  -16.33051
       H     7.43598    9.43800  -16.83813
       O     8.37271    9.06261  -16.84625
      H1     9.02658    9.73802  -17.02987
       H    16.11728    9.75038  -15.82509
       O    16.72131   10.37376  -16.25457
      H1    17.44242    9.98551  -16.77070
       H    11.53463    6.20148  -15.13940
       O    11.02707    5.93670  -15.92674
      H1    10.60928    5.14755  -15.79083
       H    13.41184    7.43353  -12.18941
       O    12.62298    7.84502  -12.66164
      H1    11.88424    7.58184  -12.05246
       H     4.46055    2.54612  -14.61041
       O     4.19632    1.70832  -14.18110
      H1     4.82079    1.05152  -14.52787
       H     8.50645    4.25343  -16.55594
       O     8.37035    4.58930  -15.61007
      H1     8.13918    5.52651  -15.76360
       H    10.31907    0.24170  -15.64101
       O     9.69814    0.84781  -15.13939
      H1     9.41618    0.25462  -14.46345
       H    14.09002   -0.65647  -17.80846
       O    13.39836   -0.89133  -18.48049
      H1    12.54206   -0.94122  -18.00059
       H    14.66791    7.91472  -15.72364
       O    14.91402    8.69479  -15.21220
      H1    14.15520    9.25721  -15.09613
       H     5.23054    5.68213  -13.08344
       O     5.57873    5.23284  -13.81068
      H1     6.43319    4.84983  -13.62078
       H     8.12317    7.25327  -11.11556
       O     8.31161    6.58354  -11.79288
      H1     8.22835    6.99088  -12.68744
       H    10.60177   10.08209   -9.75861
       O    11.24232   10.18266  -10.49911
      H1    11.18761    9.25105  -10.88865
       H    10.56383    6.28089  -19.07242
       O     9.90394    5.85277  -18.54032
      H1    10.28539    6.03947  -17.67468
       H    10.96062    2.90729  -17.79072
       O    10.14109    3.07344  -18.19231
      H1    10.22380    4.01324  -18.43173
       H     9.83664   11.30725  -19.69910
       O    10.03496   10.54881  -19.10706
      H1    10.93713   10.28521  -19.24450
       H     8.53152    2.26259  -10.89481
       O     9.14138    2.12336  -11.59799
      H1     8.94966    2.78531  -12.26378
       H     6.83932   -0.25784  -14.38740
       O     6.24123   -0.10292  -15.13928
      H1     6.81280    0.56406  -15.60271
       H     5.41714    4.32474  -15.45242
       O     5.12592    3.67526  -16.10490
      H1     5.99619    3.40660  -16.41647
       H    15.89102    8.12999  -12.21910
       O    15.54264    7.43309  -12.80630
      H1    15.06352    7.83884  -13.58243
       H    10.79247   10.47035  -14.26150
       O     9.98710   11.02358  -14.13907
      H1     9.55307   10.41164  -13.42310
       H    17.09312    3.84966  -15.25455
       O    17.37621    3.44367  -14.42916
      H1    17.41921    2.53425  -14.55976
       H    12.90828    1.62652  -14.11135
       O    13.01082    1.29764  -13.19775
      H1    13.04262    2.14403  -12.66303
       H     9.72966    7.14111  -11.23417
       O    10.57049    7.46952  -10.86441
      H1    10.88764    6.86974  -10.13884
       H     8.33725    7.91447  -15.54682
       O     8.33260    7.23798  -14.86301
      H1     9.27740    6.88162  -14.91598
       H     7.71760   -0.60970  -12.13456
       O     8.29795   -0.15441  -12.75520
      H1     8.61588    0.72135  -12.30540
       H    12.31555    2.63475  -15.89097
       O    11.74656    2.82054  -15.13622
      H1    11.01813    2.14381  -15.09957
       H    14.17017   12.34749  -17.90230
       O    14.44635   11.94116  -18.71748
      H1    15.32046   11.62229  -18.59705
       H     5.43785   12.30156  -13.79286
       O     5.73244   11.47386  -14.25862
      H1     5.78079   10.67840  -13.69370
       H    18.75971    6.37572  -16.95128
       O    17.88437    6.82210  -16.69187
      H1    17.91762    7.73336  -17.02199
       H     6.17925    8.59857  -18.24250
       O     5.81149    9.33941  -17.70906
      H1     5.89965   10.23050  -18.15995
       H    14.86197    5.02904   -9.89688
       O    15.71972    5.42940   -9.94588
      H1    15.82647    5.92182  -10.75394
       H     5.37495    8.58175  -13.33388
       O     6.11095    8.99936  -12.89948
      H1     5.75376    9.36853  -12.05348
       H    13.67989    6.93242  -18.64921
       O    13.04918    7.21150  -19.32439
      H1    12.79199    6.38797  -19.74180
       H    10.61949   12.86598  -17.01457
       O    11.34293   12.19338  -17.16453
      H1    10.82384   11.58848  -17.69217
       H    16.98695    5.57300  -16.26603
       O    16.17136    5.03607  -16.23235
      H1    16.29254    4.46314  -16.98738
       H    11.56742    0.94603  -11.55134
       O    11.61687    0.83709  -10.60669
      H1    10.90989    1.45680  -10.35293
       H    13.32677    3.40345  -10.44017
       O    13.66884    3.44844   -9.51528
      H1    13.40120    2.57499   -9.18663
       H     6.83192    6.45229  -19.45358
       O     6.91041    7.29281  -19.03757
      H1     7.69456    7.19475  -18.48110
       H    13.12876    6.82207   -9.07431
       O    12.40882    6.20621   -9.18562
      H1    12.72250    5.68246   -9.93814
       H     8.71145   12.04059  -15.03438
       O     7.87726   12.53693  -15.19343
      H1     7.16785   11.95251  -14.96801
       H     5.15474    8.54863  -15.59716
       O     4.30183    8.31572  -15.32871
      H1     3.79871    9.09460  -14.96611
       H    15.58914    5.47279  -13.05168
       O    15.11643    4.62257  -12.97125
      H1    15.73511    3.93697  -13.29272
       H    13.22531   10.54541  -18.86702
       O    12.64980    9.93179  -19.30548
      H1    13.07381    9.09054  -19.40660

