162
frame 11 | Written by MDAnalysis XYZWriter (release 2.4.3)
       H   -11.04039    8.45930  -12.29358
       O   -10.46123    8.66824  -13.08683
      H1   -10.04226    7.82146  -13.24574
       H    -8.17257   11.48904  -12.87574
       O    -8.66981   12.24787  -13.26863
      H1    -9.22857   12.48120  -12.48103
       H    -9.39203    8.37449   -7.48524
       O    -8.73687    7.94028   -8.04398
      H1    -9.12806    7.05717   -8.18674
       H    -9.59764    5.23075   -7.01189
       O    -9.36424    5.40265   -7.96327
      H1    -8.93298    4.53337   -8.24488
       H    -9.14062    7.40261  -16.57090
       O    -9.01246    8.35163  -16.62018
      H1    -8.57826    8.51684  -17.46856
       H   -14.16918   11.63204  -10.43146
       O   -14.20503   11.81637   -9.49360
      H1   -14.99204   12.38393   -9.39280
       H   -14.40436   11.27151  -12.80415
       O   -14.47983   10.79689  -11.94943
      H1   -15.41974   10.59769  -11.84002
       H   -10.04120   11.07998   -7.62089
       O   -10.25753   10.22132   -7.29001
      H1   -10.23342   10.38501   -6.34143
       H    -6.58332    5.70903   -5.80144
       O    -6.70217    5.32412   -6.67462
      H1    -7.44081    5.84898   -7.07724
       H    -3.18529    7.93017  -12.69864
       O    -3.71057    7.26012  -12.27276
      H1    -4.43002    6.97101  -12.85396
       H   -15.21428    5.57678  -16.88021
       O   -15.46061    4.84067  -16.29333
      H1   -14.70805    4.20986  -16.49551
       H   -11.20778    6.37833  -17.53725
       O   -10.85022    6.58274  -18.40645
      H1   -10.62873    7.55095  -18.39860
       H   -14.64251    2.61046   -9.82203
       O   -13.85662    2.82121  -10.27453
      H1   -13.20710    3.12136   -9.64502
       H   -14.76131    7.91018  -11.43796
       O   -13.99969    8.02936  -11.94665
      H1   -13.89981    8.96897  -12.12048
       H    -6.60177    6.78973  -13.85974
       O    -6.38703    6.03915  -13.24997
      H1    -5.76868    5.58660  -13.86175
       H   -11.84384    9.22368   -7.99371
       O   -12.41360    8.47392   -8.00793
      H1   -13.29564    8.82633   -8.02392
       H   -11.48668    8.26004   -9.94181
       O   -11.62799    7.71505  -10.74491
      H1   -12.47536    8.06118  -11.13047
       H   -11.88206   15.50517  -14.58488
       O   -12.01418   14.53883  -14.50734
      H1   -11.16357   14.18787  -14.73341
       H   -10.14033    5.28517  -13.81536
       O    -9.75172    6.03084  -14.30882
      H1    -9.17266    5.72520  -15.03330
       H   -11.32707    4.98436  -11.86022
       O   -11.21125    4.42583  -12.62837
      H1   -12.09376    4.19186  -13.01290
       H   -15.44658    5.56748  -14.54051
       O   -15.43167    5.79654  -13.59112
      H1   -14.59935    6.28246  -13.35230
       H    -6.04470   10.69333   -9.56465
       O    -5.62070   11.33417   -9.00578
      H1    -5.20342   12.02851   -9.52748
       H   -15.53513    6.64609   -9.55595
       O   -15.94774    7.28187  -10.19795
      H1   -16.67371    6.88296  -10.65829
       H   -12.75138   11.00397  -14.90892
       O   -13.57420   11.41598  -14.67053
      H1   -13.60980   12.32937  -14.94920
       H   -13.96238    6.28075   -7.82465
       O   -14.08344    5.50972   -8.45019
      H1   -13.28382    5.51020   -8.98175
       H    -7.57431    9.38897  -11.72026
       O    -7.88138    9.70618  -12.53000
      H1    -8.77652    9.38832  -12.66698
       H   -10.45005    3.01651  -12.05920
       O    -9.85744    2.29548  -11.72088
      H1    -9.02425    2.45421  -12.18369
       H   -11.18009    9.18597  -14.55284
       O   -11.51318    9.39674  -15.46938
      H1   -10.79298    8.92486  -15.96879
       H    -8.98424    2.84436  -10.19012
       O    -8.58433    2.97906   -9.30593
      H1    -8.85085    2.13820   -8.84976
       H   -11.50877    6.19115  -10.09496
       O   -11.54929    5.25947   -9.80232
      H1   -10.89522    5.11827   -9.12056
       H   -17.56936    8.16566  -15.19263
       O   -16.78244    8.21593  -15.74781
      H1   -16.41643    9.11441  -15.81176
       H    -9.72219   15.29004  -15.93831
       O    -9.28298   14.89095  -15.11980
      H1    -9.15981   13.95154  -15.27219
       H   -11.77429   12.85391  -16.56279
       O   -12.38230   13.12287  -17.25860
      H1   -12.91398   12.41746  -17.62724
       H   -17.18540    6.47856  -12.71455
       O   -17.75976    6.88487  -12.07906
      H1   -18.58165    6.40732  -12.00350
       H   -15.89402   11.57759  -16.54329
       O   -15.54665   10.67362  -16.59424
      H1   -14.79577   10.75184  -16.01313
       H   -14.52682    4.33229  -13.34168
       O   -13.84672    3.62228  -13.30583
      H1   -13.99339    3.26974  -12.41712
       H   -10.09461   12.83345   -9.52076
       O   -10.05029   12.57832   -8.52505
      H1   -10.94326   12.75938   -8.20612
       H    -7.57553   13.59394  -13.04603
       O    -6.74309   14.15161  -13.02748
      H1    -6.90959   15.04297  -13.40657
       H    -7.25245    5.47283  -16.78558
       O    -8.04010    5.32555  -16.24910
      H1    -7.88700    4.41411  -15.85902
       H   -13.20298   12.80842   -8.32399
       O   -12.63597   13.10017   -7.61510
      H1   -12.82001   14.07644   -7.50792
       H    -7.04790    8.98726  -14.02199
       O    -6.81503    8.62686  -14.86915
      H1    -7.68411    8.46337  -15.31523
       H   -12.63264    3.50771  -17.41326
       O   -12.69150    3.51811  -16.44742
      H1   -12.31356    4.37544  -16.13151
       H    -7.03762   11.66545   -7.57517
       O    -7.69606   12.25196   -7.15149
      H1    -8.22865   12.53165   -7.92345
       H    -6.42001    8.30231   -9.87706
       O    -6.97780    9.10145   -9.77936
      H1    -7.59679    8.92023   -9.03821
       H    -4.26837   10.40888  -15.53707
       O    -5.15832   10.82572  -15.35891
      H1    -5.76308   10.10815  -15.15938
       H   -17.33050   10.47315   -9.93093
       O   -17.11905   10.06507  -10.72248
      H1   -17.58808    9.20665  -10.71666
       H   -12.44997    6.32903  -15.35858
       O   -11.75078    5.76902  -15.78502
      H1   -10.89940    5.88561  -15.37366
       H   -12.34533   14.33733  -12.98427
       O   -12.42717   14.13856  -12.02598
      H1   -12.24709   14.95108  -11.50831
       H   -13.22520    8.32015  -16.09620
       O   -13.86798    7.59872  -16.03293
      H1   -14.71288    8.02617  -15.97014
       H    -9.89212   11.93136  -14.71288
       O   -10.49840   12.04232  -15.48710
      H1   -10.69905   11.09203  -15.78697
       H    -7.04257    2.80894  -13.29529
       O    -7.07740    3.16478  -12.40262
      H1    -6.99165    4.12672  -12.43303
       H   -10.93384   13.74230  -11.60468
       O   -10.07547   13.59514  -11.19477
      H1    -9.56993   14.43724  -11.29012
       H   -12.67878    7.91105   -6.38809
       O   -13.30273    7.53745   -5.69655
      H1   -13.48400    8.23734   -5.07253
       H   -15.37839    8.83288   -9.34139
       O   -15.08215    9.34487   -8.54994
      H1   -14.89778   10.22167   -8.93042

