162
frame 1 | Written by MDAnalysis XYZWriter (release 2.4.3)
       H     8.30599   -0.08246   -0.22019
       O     7.75671   -0.82726   -0.44244
      H1     8.25952   -1.54456   -0.02288
       H    10.72957   -1.47406   -0.34249
       O    11.27240   -1.23389   -1.08486
      H1    11.74608   -2.02030   -1.35236
       H    14.97934    4.80886    2.08847
       O    15.20267    4.33601    1.25288
      H1    15.24888    3.40532    1.52107
       H    11.92743    4.33361   -5.80018
       O    12.19080    4.34850   -4.84477
      H1    12.76426    5.14698   -4.75362
       H    12.96906   -4.69844   -2.31300
       O    12.58262   -3.81616   -2.08983
      H1    11.72646   -3.74913   -2.56790
       H    12.51852   -1.32126   -6.27337
       O    12.35659   -1.94152   -5.60952
      H1    11.69505   -2.54299   -6.07389
       H    14.74672    3.20682   -3.62161
       O    15.23983    3.90107   -3.20668
      H1    15.51419    4.37896   -3.99708
       H    12.08266    2.86500   -1.04001
       O    12.07428    3.83152   -1.00593
      H1    13.00245    4.20208   -1.12210
       H    13.31729    1.50094    5.81464
       O    13.72064    1.79290    5.00396
      H1    13.56911    2.71749    5.09590
       H    12.96549    5.52214    4.81568
       O    12.90306    4.82127    4.13639
      H1    11.97671    4.68404    4.01880
       H     9.25034   -0.64958    2.71126
       O     8.90897   -0.44711    3.58156
      H1     8.33139    0.35897    3.52855
       H     5.13666    2.98773    1.12467
       O     5.51455    2.22696    0.72554
      H1     6.04277    2.47334   -0.02658
       H    10.43041    1.86583   -7.38649
       O     9.50222    2.26439   -7.23421
      H1     8.89812    1.76520   -7.86923
       H    15.64416    0.94575    2.24855
       O    16.10281    1.61223    1.79599
      H1    17.05178    1.33700    1.89303
       H    18.33153   -4.18845   -1.00059
       O    17.79665   -4.14420   -1.78474
      H1    17.32753   -3.30136   -1.68325
       H    15.79369   -0.65872   -2.63821
       O    16.45872   -1.00233   -2.01119
      H1    16.94814   -0.22043   -1.70412
       H     8.93061   -4.82295   -0.45748
       O     8.53986   -4.28583   -1.14489
      H1     9.25473   -3.99026   -1.74150
       H    15.47852    1.36234    0.40154
       O    15.09397    1.52066   -0.50103
      H1    15.64479    2.21862   -0.90957
       H    10.44251   -0.55890    1.46137
       O    10.06315   -1.42336    1.32655
      H1    10.64187   -2.07344    1.82620
       H    10.68974    4.92168    1.52090
       O    10.34188    4.05514    1.22767
      H1    10.82630    3.80965    0.45964
       H    14.78350   -3.92783    0.85752
       O    14.72524   -2.92158    0.90977
      H1    15.13346   -2.68761    0.08463
       H     9.35931    1.21894   -3.95768
       O    10.19868    0.88258   -3.52469
      H1    10.99908    1.25263   -3.90355
       H    13.39173    1.02341   -0.91035
       O    12.45904    1.14977   -1.22736
      H1    12.07207    0.28394   -1.09640
       H    12.62686   -4.00007    2.21049
       O    12.00427   -3.32585    2.51333
      H1    11.40261   -3.67601    3.18476
       H    11.42511    1.09161    2.30924
       O    10.58103    1.40714    1.98238
      H1    10.59328    2.39599    2.01762
       H    12.28754   -1.50403    2.98841
       O    12.41594   -0.54476    3.02416
      H1    12.22121   -0.14903    3.89936
       H    19.16397    1.15792   -0.80593
       O    18.43838    1.15718   -1.40809
      H1    18.42789    2.04145   -1.82446
       H    12.49673    2.87970   -4.17135
       O    12.81013    1.93651   -3.93574
      H1    12.55859    1.59786   -3.04969
       H    16.76969   -2.93119   -4.42910
       O    17.52132   -2.42544   -4.22925
      H1    17.11965   -1.70249   -3.70241
       H    12.44635    6.42270   -2.61804
       O    11.64661    6.91708   -2.47306
      H1    11.11983    6.71850   -3.24072
       H    17.22605    3.44983   -3.18901
       O    18.12264    3.50327   -2.82459
      H1    18.74512    2.88572   -3.16721
       H     9.18332    4.87093   -3.19653
       O     9.57318    4.46708   -4.01926
      H1    10.45821    4.11354   -3.86476
       H    12.46644   -5.40643   -0.59499
       O    12.71430   -6.30555   -0.40229
      H1    12.86598   -6.79084   -1.27419
       H     6.26959    2.69858   -2.02081
       O     7.09276    2.89709   -1.58634
      H1     7.74347    2.21632   -1.77922
       H     8.05930   -0.97230   -2.23942
       O     8.27503   -1.08880   -3.15723
      H1     9.08866   -0.59445   -3.40964
       H    15.42876   -1.30576    2.28862
       O    15.03598   -0.60282    2.85569
      H1    14.10751   -0.82676    2.85364
       H    17.91213   -1.13473    1.56826
       O    17.60709   -1.78962    2.22453
      H1    18.36556   -2.33108    2.47917
       H    14.05725   -2.96309   -3.11057
       O    14.60834   -2.97198   -3.91208
      H1    13.95310   -3.01749   -4.61298
       H    12.80869    1.00035   -6.31472
       O    12.20905    1.04929   -7.03688
      H1    12.76135    0.96576   -7.90125
       H    17.58199    4.37513    0.74348
       O    18.12249    4.70664    1.48188
      H1    17.45125    4.72777    2.18108
       H     9.56491   -3.96342   -3.76541
       O    10.04858   -3.33584   -3.16961
      H1     9.58467   -2.46003   -3.02010
       H    14.07961    0.52302   -4.04521
       O    14.77861   -0.15162   -4.10815
      H1    14.42766   -1.07274   -4.12065
       H    13.60079    2.61873   -7.32733
       O    14.53206    2.82610   -7.23640
      H1    14.91069    1.92151   -7.02017
       H    16.18135   -0.17678   -7.19692
       O    15.66842    0.30463   -6.58189
      H1    15.43148   -0.18148   -5.78009
       H    16.28621    7.52282   -0.20638
       O    15.47017    7.97188   -0.36263
      H1    14.84203    7.31818   -0.71016
       H    14.80014    6.27157   -5.14300
       O    14.06548    6.46787   -4.48755
      H1    14.28170    7.33059   -4.08267
       H    10.98931   -0.42055    6.11835
       O    10.80973    0.17050    5.33284
      H1    10.13354   -0.25252    4.80895
       H     8.75022    2.31278   -5.65401
       O     8.25485    2.28172   -4.78398
      H1     8.56161    3.01539   -4.24577
       H     9.95969    6.05801   -4.79118
       O    10.08121    7.01266   -4.88427
      H1    10.50060    7.14937   -5.77565
       H    14.87995    5.12514   -1.58622
       O    14.34094    5.59562   -0.96314
      H1    14.58627    5.19092   -0.14350
       H     6.68306    4.86164    0.86517
       O     7.59156    5.14267    0.87876
      H1     8.14395    4.52735    1.35276
       H    10.42240    2.13521    4.53889
       O    10.51231    3.00097    4.89584
      H1     9.59566    3.33639    4.92474
       H     9.77823    6.10926   -1.01708
       O     9.13193    5.58333   -1.45934
      H1     8.82870    4.97478   -0.77383
       H     9.89677    1.62867   -1.31311
       O     9.39442    1.38581   -0.51394
      H1     9.92368    1.69060    0.19138

