162
frame 10 | Written by MDAnalysis XYZWriter (release 2.4.3)
       H    -5.57673    7.12232   -8.28738
       O    -5.91498    6.24125   -7.99899
      H1    -6.39073    6.45172   -7.20014
       H    -8.90319    9.07246   -8.05936
       O    -8.11674    8.55693   -8.33791
      H1    -8.37252    7.62840   -8.53635
       H    -7.68451    6.84051   -2.45001
       O    -7.22972    6.27001   -1.81136
      H1    -7.63622    5.37229   -1.96260
       H    -7.47813    8.72882   -5.18005
       O    -7.07683    9.34653   -5.88162
      H1    -7.48064    9.08693   -6.74351
       H   -10.34780   10.37575   -7.08230
       O   -10.44995    9.42897   -6.82376
      H1   -10.56650    9.38625   -5.86827
       H    -2.87833    7.75547   -1.92341
       O    -3.78491    7.71658   -2.20726
      H1    -3.79738    6.90902   -2.73782
       H   -13.07138   15.61819   -3.62666
       O   -13.81280   15.20278   -3.16779
      H1   -14.57075   15.82946   -3.11375
       H    -6.86771    5.33970   -4.77011
       O    -7.10596    5.98435   -5.50283
      H1    -7.90249    5.55113   -5.88071
       H    -4.20736    7.98839   -5.28870
       O    -4.43050    8.89179   -4.93703
      H1    -5.33143    9.07161   -5.15790
       H    -3.97239    9.80965   -3.29971
       O    -3.82515   10.65939   -2.85332
      H1    -4.03057   10.44835   -1.90143
       H    -7.31376   12.00237   -3.97274
       O    -7.16427   12.81993   -4.39477
      H1    -7.33253   12.76035   -5.36061
       H    -8.71842   13.03133   -0.46504
       O    -8.11480   12.35967   -0.20436
      H1    -7.27481   12.87360   -0.13982
       H    -2.02216   15.41419   -3.55814
       O    -1.90492   15.91988   -2.76351
      H1    -1.39122   16.70707   -2.98319
       H    -5.18622    6.20399   -4.37604
       O    -5.22564    5.49317   -3.71035
      H1    -5.83615    5.81137   -2.99177
       H   -14.21295   14.14175   -4.56182
       O   -14.37416   13.40642   -5.16625
      H1   -13.64313   13.32955   -5.84506
       H   -11.96201    8.94817   -7.22143
       O   -12.79024    8.59405   -7.60424
      H1   -13.43317    9.21132   -7.31357
       H   -11.21844   16.03755   -4.83330
       O   -11.99814   16.52206   -5.08416
      H1   -11.65678   17.45987   -5.04714
       H    -6.60840   14.11070  -10.88440
       O    -7.17501   14.74528  -10.45533
      H1    -6.70064   14.98930   -9.67560
       H    -9.02332   12.68397    2.67923
       O    -8.66173   11.84219    2.43004
      H1    -8.13669   11.99331    1.63793
       H    -5.45378   10.95905   -8.56917
       O    -4.99548   11.48670   -7.88033
      H1    -4.82081   12.32331   -8.26430
       H    -0.47441   11.89916   -2.54726
       O    -0.89849   11.24498   -3.17274
      H1    -1.85250   11.20007   -2.88913
       H    -7.84960   18.02194   -6.93761
       O    -8.11506   17.13612   -7.11863
      H1    -7.37515   16.49982   -7.31523
       H    -4.77333    8.90330    0.15856
       O    -5.43939    8.23234    0.28618
      H1    -5.41241    7.64311   -0.47232
       H    -7.84246   16.06822   -3.70756
       O    -7.16060   15.72810   -3.07534
      H1    -7.09613   14.80166   -3.28319
       H    -3.79317   15.72318   -5.43006
       O    -4.66434   15.94611   -5.14229
      H1    -4.62271   15.95600   -4.17764
       H    -4.50945   12.25158   -2.86363
       O    -4.75119   13.12341   -3.14985
      H1    -5.45265   13.09271   -3.74540
       H    -9.58086   14.34559   -2.06831
       O    -9.68574   14.61219   -1.15664
      H1   -10.44634   15.22727   -1.23349
       H   -11.25998   11.18209   -1.93041
       O   -11.62148   11.68593   -2.64868
      H1   -12.24253   12.18725   -2.11409
       H    -8.54668   17.03123   -5.47056
       O    -8.99193   16.92368   -4.59479
      H1    -8.71050   17.76790   -4.14471
       H    -1.61611   11.06218   -6.35377
       O    -1.17649   11.89905   -6.25923
      H1    -1.42560   12.33112   -7.11610
       H    -6.38676   14.50176   -7.43851
       O    -6.10615   15.36354   -7.78157
      H1    -5.44720   15.61125   -7.10743
       H    -4.61531    5.87523   -6.36535
       O    -3.96997    6.48531   -5.95922
      H1    -3.49525    5.94156   -5.33377
       H    -5.42865   14.12269    2.19774
       O    -4.86352   14.77680    1.77300
      H1    -5.31783   15.60047    1.70292
       H    -4.43119   11.68795    0.14154
       O    -4.16782   10.75811   -0.02335
      H1    -3.24112   10.79247    0.11356
       H    -3.44028   10.43349   -7.78818
       O    -2.69071    9.74330   -7.64853
      H1    -3.03131    9.07604   -7.09018
       H   -10.23711   12.22612   -8.93382
       O   -10.28747   11.79995   -8.03785
      H1   -11.10771   12.15867   -7.73013
       H   -13.23630   12.94814   -7.99503
       O   -12.60823   13.18815   -7.29491
      H1   -12.43069   14.15662   -7.38844
       H    -5.26398   13.39708   -1.23943
       O    -5.42565   13.23072   -0.27434
      H1    -5.05005   13.95143    0.17371
       H    -7.76173    9.32973    0.25465
       O    -8.66877    9.04700   -0.05656
      H1    -8.58743    8.44181   -0.79750
       H   -11.54200    9.53102   -3.70899
       O   -11.05400    8.87376   -4.24411
      H1   -11.28222    7.97399   -4.04236
       H    -4.43298   17.26241   -1.62448
       O    -4.97555   17.46567   -2.38542
      H1    -5.70598   16.88350   -2.56161
       H    -6.83584   12.25576   -7.28314
       O    -7.41875   13.02467   -7.15686
      H1    -8.35230   12.81275   -7.52846
       H   -11.93120   12.01842    1.16076
       O   -12.73500   12.53874    1.37925
      H1   -13.38717   12.16424    0.76921
       H    -3.76583   19.23471   -4.68079
       O    -3.40434   18.49433   -5.20951
      H1    -3.96292   17.74661   -4.96709
       H    -8.53344   16.00046    0.04308
       O    -8.77895   16.52267    0.78340
      H1    -9.15133   17.37242    0.57300
       H    -5.27857    9.34432   -9.68214
       O    -6.14470    9.80803   -9.67304
      H1    -6.76623    9.23873   -9.17000
       H    -2.52908   14.70822   -5.73267
       O    -2.33580   15.36105   -6.44910
      H1    -1.42241   15.13805   -6.65786
       H    -3.34722   13.59134   -3.80794
       O    -2.50140   13.76090   -4.28356
      H1    -1.96118   12.94127   -4.28482
       H    -7.53903   11.05275   -2.00696
       O    -7.40704   10.41423   -2.76091
      H1    -6.47601   10.28014   -2.77722
       H   -10.07850   10.29095   -0.17992
       O   -11.01068   10.52583   -0.04942
      H1   -11.49976    9.63971   -0.11784
       H   -10.39047   13.96119   -9.98533
       O    -9.68178   13.36792  -10.31924
      H1    -8.88532   13.87210  -10.00432
       H    -8.20093    8.82600   -3.31328
       O    -8.44431    8.13226   -3.91436
      H1    -9.37412    8.31961   -4.18314
       H   -10.03740   12.69943   -3.50931
       O    -9.66382   13.55694   -3.68685
      H1    -8.79436   13.47966   -4.09806
       H   -11.44568   13.91491    1.35287
       O   -11.15780   14.86597    1.57504
      H1   -10.29120   14.92722    1.11712

