162
frame 3 | Written by MDAnalysis XYZWriter (release 2.4.3)
       H     6.37222   -8.15130  -12.73444
       O     5.93580   -8.96539  -12.50018
      H1     6.67421   -9.53798  -12.18139
       H    10.03994  -13.32133   -0.76075
       O     9.16086  -13.27192   -0.33216
      H1     8.72197  -12.47718   -0.63012
       H    10.11765   -8.61434  -11.67751
       O     9.20013   -8.30217  -11.81857
      H1     9.33792   -7.31013  -11.91382
       H     9.96908   -5.48946  -10.09118
       O    10.82500   -5.38565   -9.53734
      H1    11.24291   -6.19842   -9.81842
       H     8.28548   -8.87427  -10.43395
       O     7.63857   -8.91994   -9.67579
      H1     6.93191   -8.32444   -9.95561
       H    13.33418  -18.03390   -6.16741
       O    12.55200  -18.49197   -6.51499
      H1    11.67845  -18.08714   -6.18075
       H     3.48965  -11.54897   -4.73222
       O     2.54471  -11.60968   -4.65121
      H1     2.44703  -12.54182   -4.43682
       H     6.61826  -12.75513  -11.30677
       O     5.78243  -12.74215  -11.75614
      H1     5.89066  -12.62293  -12.69403
       H     8.55593  -14.18678   -1.85854
       O     7.94903  -14.38210   -2.61858
      H1     8.51324  -14.39566   -3.36255
       H     6.49467  -10.48795   -0.98470
       O     7.45205  -10.65665   -1.11455
      H1     7.48536  -10.52731   -2.04737
       H     6.39235  -13.92417   -4.03627
       O     5.51533  -13.53381   -4.30337
      H1     4.88672  -14.24660   -4.20959
       H     3.88271   -9.76370   -7.36365
       O     4.30799   -8.90640   -7.49397
      H1     4.46049   -8.80533   -8.43814
       H     8.29381  -17.00571   -9.12314
       O     8.33108  -16.09920   -9.55435
      H1     8.12804  -16.33743  -10.45803
       H     7.83096  -17.41264   -5.98012
       O     7.08354  -16.75127   -5.93042
      H1     7.58580  -15.96953   -6.10971
       H     5.36467  -11.61128   -8.92574
       O     6.24089  -11.84263   -8.62008
      H1     6.43572  -11.23863   -7.93980
       H    11.46934  -11.84055   -8.65545
       O    10.53930  -12.15522   -8.64651
      H1    10.65441  -13.11946   -8.74993
       H    13.24241  -11.60994   -9.76003
       O    13.05828  -11.09461   -9.00993
      H1    13.89371  -10.61565   -8.93370
       H     6.08204  -13.80631   -8.72551
       O     6.15119  -14.72616   -8.45311
      H1     6.90926  -15.02726   -8.99983
       H    12.07673  -11.46801   -4.81259
       O    11.62816  -10.65329   -5.05962
      H1    10.81070  -10.78914   -5.59429
       H    14.21486  -12.10598  -12.21864
       O    14.60963  -12.17382  -11.33073
      H1    15.56136  -12.00428  -11.34041
       H     9.45822  -19.15636   -6.33057
       O     9.60603  -18.44594   -6.96231
      H1     9.97488  -18.80147   -7.77386
       H     5.30876   -9.79696   -4.22915
       O     5.18614  -10.54307   -4.85175
      H1     5.49380  -11.39979   -4.40199
       H     7.05242  -15.91234   -2.80222
       O     6.52788  -16.69437   -3.07575
      H1     6.44497  -16.72669   -4.08604
       H     8.23164   -7.26193   -1.00570
       O     8.60841   -7.03027   -1.87509
      H1     8.86640   -7.94032   -2.25808
       H     9.25431   -7.75514   -5.05579
       O    10.06053   -8.15093   -5.44032
      H1     9.82812   -8.27966   -6.34272
       H    10.30223  -17.11121   -5.70929
       O    10.88070  -16.72385   -5.03814
      H1    11.28206  -15.96242   -5.50670
       H     8.65695  -11.17365   -6.17990
       O     9.37010  -11.80759   -6.21024
      H1     9.55243  -11.79366   -7.21554
       H    11.05247  -14.00353   -6.04869
       O    11.80995  -14.52171   -6.30814
      H1    11.52736  -14.92306   -7.13041
       H    12.07504   -8.40913   -4.88361
       O    12.60129   -7.82420   -4.30102
      H1    13.07009   -8.40776   -3.68890
       H    12.35596   -8.82472   -9.37401
       O    12.28030   -7.86669   -9.14463
      H1    12.92778   -7.56935   -8.44797
       H    13.49759  -14.47539   -6.45119
       O    14.44975  -14.37220   -6.54761
      H1    14.65397  -13.49335   -6.23445
       H    13.56553   -7.55358   -5.94061
       O    14.22304   -7.58050   -6.65896
      H1    14.43862   -6.66499   -6.97161
       H    11.45621  -15.38312   -9.20934
       O    10.70969  -14.93766   -8.75494
      H1     9.94823  -15.41973   -9.13966
       H     6.96435   -7.93163   -6.93962
       O     6.27582   -7.19643   -6.95411
      H1     5.35340   -7.52249   -6.83462
       H    14.87848  -14.18501   -8.27328
       O    15.26141  -14.28811   -9.15688
      H1    15.04946  -13.44499   -9.56911
       H    13.19264  -13.76683   -3.34560
       O    13.07622  -12.78335   -3.34336
      H1    13.90736  -12.35423   -3.11894
       H    10.15296  -10.86862  -10.30263
       O    10.64132  -10.40737  -11.03807
      H1    11.05493  -11.11702  -11.56484
       H     6.39015  -10.05619   -6.25315
       O     7.17919  -10.03659   -6.81609
      H1     7.08357   -9.56109   -7.63348
       H    10.09815  -14.65301  -12.93902
       O     9.60382  -15.11292  -13.69715
      H1    10.16740  -14.98555  -14.43588
       H    16.38019  -10.07393   -9.06126
       O    15.53414  -10.00115   -9.47017
      H1    15.67634   -9.94027  -10.42165
       H    11.73440  -13.97874  -11.49227
       O    11.29474  -13.45791  -12.16871
      H1    11.89746  -13.52173  -12.92318
       H     3.36951  -14.66812   -9.96723
       O     3.50175  -14.88906   -9.05570
      H1     4.47029  -14.88340   -8.94533
       H     9.26548  -13.46800  -11.07145
       O     8.63128  -12.78501  -10.80665
      H1     8.69189  -12.85834   -9.84711
       H     3.35785  -12.45881   -2.08671
       O     4.27918  -12.48271   -1.80861
      H1     4.78180  -12.75380   -2.57850
       H    10.19988   -7.00997   -8.29752
       O     9.33189   -7.37757   -8.05143
      H1     8.95594   -7.82944   -8.85826
       H    10.63165   -4.37539   -6.11069
       O    11.05645   -4.81423   -5.37290
      H1    10.69219   -5.70514   -5.33750
       H     8.20911   -9.79038  -12.46713
       O     8.13802  -10.66183  -12.89322
      H1     8.53595  -11.26170  -12.27902
       H     6.21390   -7.73574   -4.11130
       O     5.39531   -8.11206   -3.87219
      H1     5.25122   -7.63435   -3.03739
       H     4.93110   -6.97705  -10.13252
       O     4.92220   -7.92642  -10.05543
      H1     5.19134   -8.36290  -10.92038
       H     7.47811  -14.15051   -7.11444
       O     8.22287  -14.25350   -6.53276
      H1     8.48273  -13.34456   -6.34869
       H    10.98134  -11.67997   -1.32433
       O    11.10608  -11.17312   -2.12732
      H1    11.90415  -11.55381   -2.58151
       H     7.58352   -5.77979   -4.95871
       O     7.82968   -6.61082   -4.54317
      H1     8.00292   -6.40957   -3.64378
       H     9.77798  -10.05696   -2.55999
       O     9.19370   -9.40584   -3.03037
      H1     9.51499   -9.38120   -3.92543
       H    13.67863  -14.73557  -10.11081
       O    12.92426  -15.21366  -10.48339
      H1    13.39638  -15.84685  -11.03259

