162
frame 11 | Written by MDAnalysis XYZWriter (release 2.4.3)
       H     2.76833   15.58240  -10.71678
       O     1.98386   15.08406  -10.54355
      H1     1.24770   15.71183  -10.55436
       H     7.66323   10.16133  -11.91529
       O     8.65145   10.11658  -11.64251
      H1     8.71779   10.76070  -10.90793
       H     8.73312   14.73280  -10.37300
       O     8.02043   14.21256  -10.81617
      H1     8.46648   13.55582  -11.41559
       H     3.30617    9.20539   -3.44933
       O     3.06587    9.49052   -4.34995
      H1     3.10804    8.64422   -4.88536
       H     4.27192    6.68483  -11.71766
       O     4.20622    5.75143  -11.63535
      H1     4.43694    5.49697  -10.69776
       H     2.73045   16.78783   -3.33783
       O     3.32565   16.25683   -3.90919
      H1     2.88173   15.42318   -4.04365
       H     4.93996   16.34722  -11.21630
       O     4.26904   16.13879  -11.84665
      H1     4.19840   17.05647  -12.21301
       H     7.13949   10.35454   -2.32348
       O     6.34915    9.80681   -2.13788
      H1     5.77141    9.80954   -2.92242
       H    -0.00715    8.70278   -6.37378
       O    -0.18507    8.14937   -7.12846
      H1    -0.49180    8.89799   -7.68570
       H     0.56654    5.11028   -7.96600
       O     1.43025    5.05091   -8.32666
      H1     1.18856    5.19842   -9.23348
       H     0.00265   12.45817  -12.25526
       O    -0.74490   12.01328  -12.70710
      H1    -1.28948   11.56764  -12.07373
       H     2.15288   14.00344  -12.01942
       O     2.01600   13.10589  -12.36433
      H1     1.76854   13.34488  -13.28777
       H     7.68950   14.50140   -5.06877
       O     8.34983   14.38383   -4.37317
      H1     7.82269   14.06260   -3.61782
       H     4.95414   14.78429  -12.98364
       O     5.39261   14.17312  -13.62564
      H1     4.79464   14.30351  -14.43643
       H    -0.29430    7.08255  -13.91238
       O    -0.61114    7.78785  -13.33201
      H1    -0.47119    7.48082  -12.40026
       H     3.83192    6.15846   -5.17437
       O     4.11898    7.03840   -5.46532
      H1     3.99598    7.05177   -6.39845
       H     0.36114    9.09670  -12.93300
       O     1.07723    9.73106  -12.63077
      H1     0.66271   10.62634  -12.56748
       H     2.69750   10.33670   -8.64453
       O     3.56581   10.66617   -8.32763
      H1     3.84095   11.32602   -8.92072
       H     5.04540    4.45491   -8.57329
       O     4.37696    5.11772   -8.86054
      H1     3.60231    4.80088   -8.33830
       H     5.65284   16.21099   -8.88564
       O     6.02799   16.27434   -9.78733
      H1     6.70909   15.59939  -10.06404
       H     4.89975   13.27841  -11.19149
       O     4.46509   12.43671  -10.93624
      H1     3.73439   12.41566  -11.53277
       H     0.59770   15.07848   -5.38988
       O     0.22289   15.28037   -6.25977
      H1     0.85652   14.74445   -6.79494
       H     2.29414    7.01899   -8.36574
       O     2.20711    7.88880   -8.74964
      H1     1.37591    8.09711   -8.24864
       H     3.01665    8.78242  -11.04973
       O     3.80903    8.67460  -11.50484
      H1     3.55235    8.87285  -12.40325
       H     2.21352   10.81845   -5.51362
       O     1.37499   11.19940   -5.84111
      H1     0.70929   10.63855   -5.35762
       H     4.21289   16.71430   -7.38035
       O     5.07022   16.45664   -7.18412
      H1     5.52951   17.28581   -6.93994
       H    -1.64428    9.41521  -10.98330
       O    -2.20718   10.20806  -11.19798
      H1    -2.48300   10.55494  -10.31226
       H     4.86481   11.89753   -3.61238
       O     5.14227   11.23771   -4.24114
      H1     4.28552   10.77738   -4.44512
       H     2.12761    5.30353  -11.49618
       O     1.31923    5.31924  -10.98772
      H1     0.63289    4.84988  -11.46093
       H    -2.47180   10.82807   -6.48866
       O    -1.64332   11.21735   -6.19642
      H1    -1.40268   11.87213   -6.90799
       H     5.87372   14.94284   -6.44505
       O     6.42592   14.17363   -6.09235
      H1     5.72655   13.46889   -5.98567
       H    -0.65520    6.94902  -10.37378
       O    -0.58782    7.95206  -10.30013
      H1     0.31588    8.17248  -10.60783
       H     9.90314    8.81773   -6.18170
       O    10.45939    8.70133   -6.97441
      H1     9.81420    8.34500   -7.63888
       H     8.12679    6.21195   -6.37520
       O     8.53114    5.61954   -7.02225
      H1     9.50948    5.69644   -6.94163
       H     8.76935    6.60571   -8.34098
       O     9.00685    7.31810   -8.96034
      H1     8.26651    7.95843   -8.89265
       H     7.08820    9.76853   -6.87315
       O     7.23530    9.98593   -5.96302
      H1     6.45754   10.48101   -5.61058
       H     8.24955   11.90283   -8.62241
       O     8.04341   11.75136   -9.58096
      H1     7.78313   12.66672   -9.92420
       H     0.07025   13.23151   -8.82916
       O     1.02083   13.34877   -8.62866
      H1     1.38101   13.85430   -9.34746
       H     6.98854    9.87571   -9.37395
       O     7.17176    9.27304   -8.67319
      H1     6.29121    8.82492   -8.56119
       H     6.04692    7.14469   -5.62334
       O     6.96961    7.25096   -5.41226
      H1     7.21357    8.10961   -5.68488
       H     1.17421   13.52486   -3.48447
       O     1.73246   13.54754   -4.23553
      H1     1.41268   12.79131   -4.76451
       H     6.13028    7.84524   -2.43448
       O     6.09706    6.95922   -2.83158
      H1     6.17720    7.16135   -3.76495
       H     3.55350   12.16698  -14.85544
       O     4.36185   11.64621  -14.55021
      H1     4.53903   11.95218  -13.67258
       H     8.07756   13.17152   -6.76491
       O     8.51304   12.31494   -7.09670
      H1     8.54568   11.75618   -6.30349
       H     5.35691    9.70360  -11.46909
       O     5.91975   10.43762  -11.69562
      H1     5.43269   11.25025  -11.38658
       H    -0.76562    6.22409   -6.92872
       O    -1.19837    5.33649   -6.98285
      H1    -1.62764    5.28001   -7.85164
       H     3.34732   10.06586  -14.63212
       O     2.81806    9.28225  -14.57126
      H1     2.15756    9.39222  -13.84380
       H     1.13017   10.82613   -7.65906
       O     0.93961   10.75177   -8.60555
      H1     1.10315   11.69131   -8.83582
       H    -2.60962   13.07450   -9.58414
       O    -1.95519   13.24315   -8.85762
      H1    -2.48178   13.58379   -8.13105
       H    -1.22820   14.76511   -9.41717
       O    -0.84741   15.45980   -9.95740
      H1    -1.25208   16.32869   -9.77586
       H     4.74178    7.13832   -8.60176
       O     4.94825    7.91105   -8.08420
      H1     4.12881    8.45223   -8.12303
       H    -0.52651    5.96371   -3.46284
       O    -0.21463    6.42158   -4.28197
      H1     0.03797    7.32254   -4.11050
       H     1.13803    9.32064   -4.46667
       O     0.22882    9.07176   -4.53945
      H1    -0.20223    9.71516   -3.95583
       H     9.07424    8.29640   -3.65479
       O     9.39258    8.95041   -4.37585
      H1     8.61319    9.37616   -4.76569

