162
frame 2 | Written by MDAnalysis XYZWriter (release 2.4.3)
       H    17.78129  -11.04160  -16.19797
       O    18.63988  -11.17665  -15.80262
      H1    18.96791  -10.28805  -15.59352
       H    16.21480   -2.93512  -15.99119
       O    16.05325   -2.21696  -15.35494
      H1    16.72919   -1.50545  -15.43212
       H    11.07290   -7.64209  -16.68718
       O    10.96069   -8.05815  -17.55861
      H1    10.50350   -7.38712  -18.11959
       H    17.39515   -7.60994  -17.77707
       O    17.72816   -7.27341  -18.60873
      H1    18.55767   -6.82767  -18.22099
       H    11.65944   -0.65849  -18.22862
       O    12.18466    0.13034  -17.97448
      H1    13.00359    0.11951  -18.47442
       H    18.90021    3.91406  -17.60307
       O    19.00622    3.22923  -18.24556
      H1    19.32891    2.44737  -17.68935
       H    17.50176  -14.03548  -14.58679
       O    16.54675  -13.90015  -14.51874
      H1    16.19077  -14.81498  -14.56704
       H    10.01060   -1.69578  -19.37994
       O    10.31514   -1.80707  -18.43802
      H1    10.98151   -2.56245  -18.42323
       H    17.26069   -3.36473  -13.79990
       O    17.12846   -4.25995  -13.49036
      H1    16.17585   -4.36922  -13.48221
       H    14.02549   -5.03453  -13.10036
       O    14.23052   -4.65160  -13.95144
      H1    13.42180   -4.70637  -14.38731
       H    11.23845  -12.63945  -17.36362
       O    10.67269  -13.06294  -18.03320
      H1     9.80403  -12.69631  -18.12461
       H    11.26144   -3.92815  -15.27934
       O    11.77408   -4.73354  -15.42385
      H1    11.25179   -5.43153  -15.06174
       H    17.79786    0.54215  -14.13514
       O    18.14920   -0.06347  -14.78289
      H1    18.30173    0.38361  -15.62613
       H     9.97010  -10.23889  -13.88741
       O    10.10220  -10.24633  -14.89206
      H1     9.23469  -10.38810  -15.28548
       H    17.11417   -3.55383  -17.94476
       O    16.13177   -3.42613  -17.98993
      H1    15.76972   -4.28969  -17.97115
       H    13.05602   -0.08856  -14.91590
       O    12.22742   -0.13377  -15.39807
      H1    12.26192   -0.17983  -16.38768
       H    14.03418  -12.49867  -12.85862
       O    13.66241  -12.89790  -12.07291
      H1    14.37498  -13.31359  -11.59469
       H    12.53457   -8.68874  -17.51207
       O    13.32790   -9.27116  -17.56456
      H1    13.49082   -9.35376  -18.48524
       H    18.05154  -13.51043  -18.33897
       O    18.97940  -13.34910  -18.56092
      H1    19.01055  -13.51525  -19.49991
       H    13.85283   -1.65185  -11.59221
       O    13.66453   -1.78062  -10.69863
      H1    12.70808   -1.99537  -10.56521
       H    16.01318  -12.32172  -18.27899
       O    15.96729  -13.26162  -18.50510
      H1    15.56631  -13.80059  -17.79865
       H    16.37780   -9.81389  -17.51515
       O    16.73090  -10.71221  -17.78118
      H1    17.40907  -10.42983  -18.40570
       H    19.37916   -3.42218  -18.30759
       O    18.83264   -3.77158  -17.59845
      H1    19.25566   -3.63430  -16.72680
       H    19.74732   -8.21687  -13.15071
       O    19.81121   -7.27930  -13.39235
      H1    19.07965   -6.88015  -13.01841
       H    12.91917  -13.88283  -19.83478
       O    13.10668  -14.82781  -19.86706
      H1    13.37896  -15.01830  -18.94696
       H    19.39818   -4.01835  -11.38492
       O    18.88635   -4.82886  -11.48996
      H1    18.24387   -4.55047  -12.17911
       H    18.59007   -8.83976  -19.19291
       O    18.65675   -9.75525  -19.56632
      H1    19.25246  -10.22816  -18.89926
       H    17.24363   -0.69879  -17.93267
       O    18.13395   -0.69368  -18.19176
      H1    18.36777   -1.52640  -18.52589
       H     7.62261   -8.93983  -17.46235
       O     8.36989   -9.56167  -17.30162
      H1     9.13336   -9.03644  -17.11190
       H    12.20059   -9.72891  -11.03294
       O    11.57650   -9.14413  -11.51401
      H1    12.17648   -8.55958  -12.04184
       H    15.51698   -8.94298  -14.92968
       O    15.16289   -9.40172  -14.11280
      H1    14.80763  -10.26777  -14.45121
       H    13.53965  -12.10226  -14.96278
       O    14.33608  -12.00624  -14.48785
      H1    15.07379  -12.49107  -14.87624
       H    17.37705   -6.65702  -10.27078
       O    16.45568   -6.84362  -10.22220
      H1    16.43916   -7.81338  -10.12579
       H    13.48802   -7.23169  -12.24122
       O    13.25896   -7.77502  -12.98313
      H1    13.92799   -8.40540  -13.24281
       H     9.21107   -5.09567  -19.57863
       O     9.71937   -5.81224  -19.17246
      H1    10.21303   -6.09916  -19.90464
       H    18.44737   -6.28319   -8.51933
       O    18.94056   -6.50720   -9.33541
      H1    18.91486   -5.70323   -9.93223
       H    19.17169  -14.97088  -15.94363
       O    18.99243  -15.49085  -16.72289
      H1    19.01588  -14.83674  -17.48939
       H    20.26793  -10.67039  -13.31550
       O    19.64383   -9.90026  -13.13498
      H1    18.82694  -10.27516  -12.77914
       H    11.91459   -7.66234  -14.56009
       O    11.02380   -7.51720  -14.94181
      H1    10.64647   -8.32490  -14.58120
       H    14.47939   -6.38565  -10.76182
       O    13.73088   -5.95412  -11.17411
      H1    12.88320   -5.96471  -10.66647
       H    14.89319   -8.37656  -17.06747
       O    15.83903   -8.26837  -16.78372
      H1    15.85095   -7.38546  -16.28655
       H    16.63361   -9.74459   -9.45759
       O    16.01616   -9.62226  -10.15779
      H1    16.46443   -9.94417  -10.97021
       H    19.10412   -1.13915  -13.96788
       O    19.44114   -1.96229  -13.49180
      H1    19.90532   -1.65372  -12.70526
       H    16.95491   -5.20166  -15.76918
       O    16.16835   -5.72158  -15.79111
      H1    15.54289   -5.34818  -15.15107
       H    17.31251   -0.10447  -11.26793
       O    17.73633   -0.12953  -10.37130
      H1    17.02306   -0.42369   -9.79950
       H    15.13757   -0.91791  -13.95828
       O    14.43156   -0.45209  -13.55371
      H1    14.80583    0.40193  -13.24116
       H    14.68314   -1.74200  -18.55457
       O    14.67946   -1.16450  -19.32371
      H1    15.35491   -1.49903  -19.88152
       H    17.18070  -13.03793  -11.08066
       O    16.37430  -13.10868  -11.65413
      H1    16.76499  -13.44485  -12.46580
       H    11.32860  -11.03401  -15.79144
       O    12.16416  -11.46358  -16.22379
      H1    12.52310  -10.74624  -16.71156
       H    10.93842   -4.51188  -18.07760
       O    11.86500   -4.22578  -18.02107
      H1    11.96443   -4.50694  -17.10580
       H    14.81839  -16.07405  -16.94456
       O    14.75219  -15.75089  -17.81863
      H1    14.94987  -16.49633  -18.43695
       H    16.33282   -4.33805  -10.73481
       O    15.86592   -3.58745  -10.38330
      H1    15.00151   -3.51899  -10.80008
       H    17.33066    2.46989  -17.51713
       O    16.72087    2.31576  -16.78210
      H1    15.87039    2.62732  -17.00127
       H    16.82172  -11.45078  -12.33767
       O    16.97119  -10.53548  -12.51628
      H1    16.50881  -10.25701  -13.27360

