162
frame 8 | Written by MDAnalysis XYZWriter (release 2.4.3)
       H   -11.42183   -1.65025  -10.05357
       O   -10.95565   -0.83225  -10.22192
      H1   -10.87296   -0.66747  -11.15666
       H   -16.55895   -4.88398   -1.63978
       O   -16.84118   -4.07943   -2.11546
      H1   -17.20596   -4.34093   -2.90685
       H   -15.96795   -6.92648   -1.06192
       O   -15.56485   -6.08312   -0.76938
      H1   -14.63181   -6.06182   -1.12025
       H   -16.76542   -5.53268   -7.23230
       O   -17.13095   -6.26346   -6.68527
      H1   -17.41471   -5.69668   -5.91972
       H   -15.23882  -11.29280   -1.42562
       O   -15.02332  -10.35107   -1.43026
      H1   -14.60957  -10.30489   -0.54964
       H   -13.29323   -5.49588  -12.15037
       O   -13.14972   -5.39241  -11.21242
      H1   -12.62096   -4.55419  -11.16404
       H   -13.61626   -4.97353   -4.71972
       O   -14.54996   -4.97572   -4.96756
      H1   -15.15029   -5.08438   -4.22939
       H   -12.62394   -3.66474   -0.98120
       O   -12.05702   -3.13521   -1.50207
      H1   -11.40399   -2.82607   -0.87903
       H   -10.93783   -7.76763   -5.32525
       O   -11.21629   -7.51258   -4.40114
      H1   -11.63666   -6.62637   -4.40065
       H   -14.81182   -2.27706   -8.50681
       O   -14.82796   -2.83638   -9.25752
      H1   -15.06844   -2.40196  -10.08661
       H    -9.66899   -5.70445   -4.40148
       O    -8.75004   -5.37551   -4.38975
      H1    -8.46534   -5.48339   -5.27926
       H   -15.45045   -3.62865   -6.06485
       O   -15.53963   -2.77892   -6.52445
      H1   -14.99214   -2.33546   -5.90503
       H   -16.12292   -5.66821   -9.81660
       O   -16.54690   -4.96739   -9.31757
      H1   -15.82912   -4.29674   -9.23876
       H   -13.84556   -2.40817    1.94052
       O   -13.20472   -1.91298    1.35062
      H1   -13.59710   -1.85974    0.48272
       H   -13.26355   -8.37401   -9.61987
       O   -13.89889   -7.64268   -9.40458
      H1   -13.62315   -6.92559   -9.99089
       H   -18.74801   -7.85781   -1.29284
       O   -19.37756   -7.06668   -1.38754
      H1   -19.02684   -6.37747   -0.81262
       H    -8.24046   -5.36301   -8.09857
       O    -7.84503   -5.45683   -7.22944
      H1    -6.94579   -5.68234   -7.35827
       H   -16.36027   -9.47280   -1.37054
       O   -17.13932   -8.86122   -1.31044
      H1   -17.68214   -9.14522   -0.55854
       H   -18.92332   -4.81260   -4.30017
       O   -18.00493   -4.47889   -4.47395
      H1   -18.17562   -3.60753   -4.84943
       H   -14.25705   -8.07401   -7.19946
       O   -15.00620   -8.05349   -6.60250
      H1   -15.53506   -7.28143   -6.73414
       H   -18.83608   -2.43826   -6.13038
       O   -18.24021   -1.96440   -5.64043
      H1   -17.42547   -1.93169   -6.12949
       H   -13.88719   -0.37312   -4.34903
       O   -14.70069   -0.42265   -4.82065
      H1   -14.97616    0.52874   -4.78630
       H   -14.90176   -8.83767   -4.31407
       O   -14.46670   -8.10556   -3.88832
      H1   -14.39017   -7.48229   -4.59064
       H    -9.96649   -6.04795   -9.11557
       O   -10.81306   -6.30355   -8.74021
      H1   -10.53655   -7.05792   -8.12696
       H   -10.31199   -9.83084   -6.00213
       O   -10.01308  -10.29932   -5.16398
      H1   -10.80469  -10.46529   -4.69636
       H   -15.14614    2.31510   -8.00760
       O   -15.53363    1.46466   -7.96663
      H1   -14.80050    0.83620   -7.79946
       H   -10.85099   -8.79657   -7.89596
       O   -10.42868   -8.47188   -7.05909
      H1    -9.50165   -8.56614   -7.26194
       H   -15.92887  -10.53218   -5.63041
       O   -15.74379  -10.53802   -4.66815
      H1   -16.43791   -9.99064   -4.20159
       H   -11.53846   -4.35426   -4.67742
       O   -11.92877   -4.73607   -3.90887
      H1   -11.80346   -4.11761   -3.21290
       H   -18.64360   -8.28459   -8.38372
       O   -18.61373   -7.53290   -9.00909
      H1   -18.15656   -6.85275   -8.51664
       H   -12.76028    0.03077   -7.47580
       O   -13.65300   -0.34403   -7.57386
      H1   -13.97412   -0.44479   -6.68122
       H   -10.61834   -1.16200   -4.48661
       O   -10.07913   -1.03497   -5.27105
      H1    -9.65268   -1.87348   -5.56734
       H   -12.64700   -9.61741   -3.81918
       O   -12.26308  -10.53882   -3.72826
      H1   -13.00576  -11.13250   -3.80494
       H   -10.66702   -3.77025    1.04435
       O   -10.61175   -2.83309    0.75517
      H1   -11.37419   -2.44719    1.22813
       H   -11.45501   -3.68397   -8.58920
       O   -11.91429   -3.37201   -9.32119
      H1   -12.86467   -3.26341   -9.13655
       H   -11.44164   -6.24391    0.99832
       O   -10.83084   -5.61545    1.38311
      H1    -9.92393   -5.84720    1.10660
       H    -6.42708   -0.97473   -4.13366
       O    -6.93916   -1.59532   -3.57351
      H1    -7.66447   -1.73838   -4.20422
       H    -8.89025   -9.52749   -3.21673
       O    -9.34938   -8.80820   -2.80855
      H1    -9.68447   -8.23702   -3.51888
       H   -15.05062   -7.39150  -10.60617
       O   -15.61513   -6.74332  -11.12980
      H1   -16.47556   -7.22136  -11.22640
       H   -18.09079   -2.72018   -2.35972
       O   -18.94143   -2.27423   -2.47149
      H1   -18.84601   -1.57141   -3.16269
       H    -7.39505   -3.22815   -6.26262
       O    -8.12712   -2.64413   -6.54832
      H1    -7.82310   -2.19734   -7.28902
       H   -15.01143   -8.07257    1.16150
       O   -15.65131   -8.45255    1.75434
      H1   -16.24540   -7.72338    1.85878
       H   -15.68863   -0.45306   -3.41482
       O   -16.25852   -0.57359   -2.62429
      H1   -16.51984    0.29336   -2.28652
       H   -13.59248   -7.36723   -2.23763
       O   -13.22903   -6.60726   -1.88634
      H1   -12.87030   -6.10698   -2.67685
       H   -18.85259   -9.04892   -5.97050
       O   -18.26456   -8.91246   -6.72147
      H1   -17.83876   -8.10635   -6.54088
       H   -17.64873   -5.48989    1.51202
       O   -16.82519   -5.94373    1.70515
      H1   -16.39300   -5.92247    0.78821
       H   -11.54710   -9.81500  -10.05716
       O   -11.75198   -9.64419   -9.12054
      H1   -12.28327  -10.43176   -8.81987
       H   -12.00870   -0.34993   -2.95806
       O   -12.52355   -1.06850   -3.31933
      H1   -12.47664   -1.76991   -2.59432
       H    -7.91567   -4.74372   -2.25366
       O    -7.38524   -4.38723   -1.52554
      H1    -7.65132   -4.93095   -0.76554
       H   -10.85658   -9.04758   -1.59264
       O   -11.47997   -9.61665   -1.14346
      H1   -12.04912   -9.97812   -1.79692
       H   -16.70878  -11.10268   -7.10873
       O   -15.81995  -10.73948   -7.21199
      H1   -16.01972   -9.78336   -7.33082
       H   -10.75394   -5.06805   -7.44322
       O   -10.68746   -4.32073   -6.81997
      H1    -9.79349   -3.92769   -6.89549
       H   -12.89238   -7.70539   -0.07797
       O   -12.82506   -7.56536    0.86379
      H1   -11.90396   -7.82316    1.07835
       H   -15.57817   -2.53415   -0.60951
       O   -14.83775   -1.89236   -0.84770
      H1   -15.22776   -1.32344   -1.54488

