165
frame 9 | Written by MDAnalysis XYZWriter (release 2.4.3)
       H     7.91966  -12.29167    5.95422
       O     8.32490  -13.06947    6.29566
      H1     7.99083  -13.18713    7.21499
       H    12.16042   -6.51213    9.53566
       O    11.27795   -6.40525    9.85866
      H1    11.26386   -5.91052   10.69569
       H     6.05434   -8.06757    2.72932
       O     5.96867   -7.81096    1.83227
      H1     5.02509   -7.95766    1.79017
       H     5.72964   -8.10192    9.25261
       O     5.61638   -7.96478   10.24605
      H1     6.04781   -8.72658   10.60851
       H     8.50126   -9.09086    7.38681
       O     8.12580   -8.75324    6.50405
      H1     8.68436   -7.99788    6.23534
       H     7.47823  -11.23057   11.22650
       O     7.11950  -10.50610   10.72828
      H1     7.76434  -10.47252    9.93543
       H     7.76283   -3.94240   12.88760
       O     8.12517   -4.07941   12.00345
      H1     7.48117   -4.57578   11.47955
       H     3.94395   -7.71477    5.38519
       O     3.47041   -7.04820    5.90538
      H1     3.95843   -6.20889    5.61199
       H     5.18919   -7.22585    6.94370
       O     5.96092   -7.36708    7.45159
      H1     6.58704   -7.83893    6.91912
       H     7.21849  -14.16430    5.38769
       O     6.97207  -14.90087    4.80051
      H1     7.74555  -14.98533    4.21830
       H    14.46071   -7.02216   10.05888
       O    14.29896   -7.65934    9.34503
      H1    14.77492   -7.27793    8.57732
       H     3.97176   -3.87900    8.83615
       O     4.58537   -3.49241    9.49661
      H1     5.27518   -4.16746    9.68035
       H     8.98911   -4.99269    4.76687
       O     9.72575   -4.30999    4.75684
      H1    10.21521   -4.51916    3.93045
       H    11.87051  -12.21714   14.02525
       O    12.04156  -11.29107   13.83107
      H1    11.82490  -11.12756   12.90637
       H    11.33419   -9.13212    6.03112
       O    11.86394   -9.92693    6.14429
      H1    12.47462   -9.65152    6.82532
       H    11.12258   -3.39143    6.02256
       O    11.41026   -3.50056    6.98485
      H1    12.16498   -2.79847    7.07268
       H     4.56141  -11.06167    1.88666
       O     5.41735  -10.71883    1.51241
      H1     5.23643   -9.82652    1.23804
       H     8.65363  -13.48869    2.60963
       O     8.87516  -14.36024    2.22006
      H1     9.86180  -14.42457    2.19608
       H     5.51249   -3.78357    5.08424
       O     5.39884   -4.68850    4.86733
      H1     4.57122   -4.61025    4.32364
       H     8.30328   -8.89911   13.73130
       O     8.88366   -8.27735   13.28709
      H1     9.06607   -8.65177   12.40056
       H    12.26687  -12.17691    3.67778
       O    11.47041  -11.62606    3.84415
      H1    11.51560  -11.49026    4.82124
       H    11.84165   -7.24018   14.39725
       O    12.32695   -7.33622   13.52090
      H1    12.21596   -8.22098   13.19949
       H    13.85911   -9.85468    8.80530
       O    13.59033  -10.43918    8.09714
      H1    14.14268  -11.24329    8.21105
       H    10.11881   -7.78175    2.86881
       O     9.28776   -7.39851    2.51861
      H1     9.19004   -7.65611    1.56042
       H     5.81111  -11.54198   10.04648
       O     5.19451  -12.12903    9.55160
      H1     5.81655  -12.76962    9.16279
       H     7.15073   -6.07437    7.32709
       O     7.87058   -5.53788    7.61728
      H1     8.55873   -5.60155    6.93277
       H     7.77745  -10.30879    5.37666
       O     7.18096  -10.98155    5.02885
      H1     7.51087  -11.17155    4.12498
       H     6.41233   -6.33261   10.20528
       O     6.68459   -5.40081   10.13320
      H1     7.23932   -5.34474    9.36479
       H     8.58902  -11.11007    1.95888
       O     8.54110  -11.62921    2.81062
      H1     9.51178  -11.85445    2.93250
       H    12.28146  -11.31157   10.19170
       O    12.35442  -10.79918   10.97823
      H1    13.29022  -10.77753   11.09558
       H     4.57440   -9.83458   14.26946
       O     4.99222   -9.16981   13.66759
      H1     4.32264   -8.96601   12.97865
       H    11.28963   -9.23226   10.80424
       O    10.47995   -8.80255   10.92069
      H1    10.64379   -7.84619   10.63739
       H    13.56152   -4.74800    7.53448
       O    14.29741   -5.22685    7.17086
      H1    14.64267   -4.76326    6.40759
       H    11.59000   -4.90504    1.43015
       O    11.04450   -4.84713    2.20791
      H1    10.56906   -5.69276    2.35072
       H     5.66125  -11.42560    6.43246
       O     4.90543  -11.30909    7.03839
      H1     5.19627  -11.52115    7.90951
       H     6.96645   -5.72527    4.48124
       O     7.82147   -6.20748    4.62953
      H1     8.23269   -6.35500    3.76349
       H     8.25974  -11.49718   13.40889
       O     8.28781  -12.06812   12.64701
      H1     7.45714  -12.58203   12.73400
       H    11.42197   -7.15547    5.73196
       O    11.61355   -7.37107    4.81369
      H1    12.50582   -7.14492    4.56964
       H     2.01483   -7.71953    7.96226
       O     2.29709   -8.05960    8.80480
      H1     1.56193   -8.25591    9.37511
       H     4.30582   -4.25824   12.40021
       O     3.99845   -5.04540   11.95143
      H1     4.33228   -4.90360   11.01843
       H     9.97666   -2.48603    7.72176
       O     9.42077   -1.89468    8.28481
      H1     8.51908   -2.27075    8.22459
       H    12.41333  -14.08203    9.42853
       O    12.86339  -13.51584   10.04107
      H1    13.01763  -14.11938   10.72927
       H     3.92405   -8.34456   11.07450
       O     3.29159   -8.74863   11.63581
      H1     3.24874   -9.70257   11.42386
       H     3.26722  -10.70059    7.35305
       O     2.38080  -10.65075    7.71965
      H1     2.23740   -9.80124    8.22627
       H     4.47781   -9.66038    3.68940
       O     4.90116   -9.01589    4.26467
      H1     5.69484   -9.46707    4.52424
       H    10.52428   -9.98120    1.74011
       O    11.34202   -9.49731    1.88379
      H1    11.58221   -9.90078    2.75079
       H     2.98681  -12.61324    5.57417
       O     2.35296  -12.76632    4.90286
      H1     2.52750  -13.65682    4.52671
       H    10.79052   -5.30140    6.70701
       O    10.53745   -6.17512    7.04782
      H1    10.63441   -6.04526    8.02514
       H     7.14329  -14.46002    8.29543
       O     7.11870  -13.71528    8.90676
      H1     7.74443  -14.01438    9.65424
       H     6.04976   -2.85871    8.48512
       O     6.93449   -2.94487    8.04154
      H1     7.07922   -3.89367    7.87000
       H     2.17113  -12.21318   11.45424
       O     3.03502  -11.85600   11.76957
      H1     3.63559  -12.06440   11.07268
       H     9.88340   -5.19992   12.12925
       O    10.82670   -5.28510   12.19701
      H1    10.95914   -6.01672   12.78185
       H     7.01313  -15.60900    6.20374
       O     7.10104  -15.93197    7.12145
      H1     6.34627  -16.48973    7.25222
       H     9.94072  -12.13709    7.20108
       O    10.43820  -11.50894    7.76381
      H1    10.87011  -10.91429    7.13477
       H     9.18523   -9.40172    9.72942
       O     8.76909   -9.69574    8.91523
      H1     9.40727  -10.29034    8.54784

