165
frame 8 | Written by MDAnalysis XYZWriter (release 2.4.3)
       H     4.71136   15.73980  -11.10628
       O     3.80953   15.82011  -10.91166
      H1     3.34681   15.65471  -11.72756
       H     3.21286   16.46192  -14.56462
       O     3.58283   17.13983  -15.12629
      H1     3.91441   16.89222  -15.95750
       H    -0.96981   16.00451   -2.26605
       O    -1.12355   16.46165   -1.44649
      H1    -1.13027   17.38628   -1.62070
       H    -3.94875   14.38405  -10.16935
       O    -4.38045   13.52335   -9.99745
      H1    -4.70096   13.20023  -10.85337
       H    -4.42292   15.81031  -15.03343
       O    -4.08756   15.10531  -15.62360
      H1    -4.53197   15.28979  -16.49267
       H    -3.25382   16.95241  -13.17035
       O    -3.48012   17.86793  -13.54804
      H1    -2.80613   18.04170  -14.24911
       H     3.29457   13.36072   -5.84642
       O     4.22277   13.47048   -6.10565
      H1     4.21401   14.06751   -6.84125
       H     0.44987   16.82309  -13.28461
       O     0.03604   15.97234  -12.99515
      H1     0.08209   16.07172  -12.04321
       H    -1.22537   19.18715   -5.38890
       O    -0.31596   18.90591   -5.15957
      H1     0.09328   18.55591   -5.95131
       H     1.07029   12.58926  -12.80997
       O     0.87684   12.99711  -11.96847
      H1     0.12186   12.42126  -11.63295
       H     1.78335   15.23220  -13.46628
       O     2.74524   15.28314  -13.36627
      H1     3.11358   14.69502  -14.06565
       H    -1.54905   17.40130  -17.30628
       O    -0.79635   17.27573  -16.71498
      H1    -0.75000   16.30557  -16.67406
       H    -1.45426   18.87288  -10.54259
       O    -1.42334   18.66855   -9.58399
      H1    -2.19205   19.13340   -9.28435
       H    -1.25603   15.60561   -5.27694
       O    -1.24002   16.17126   -4.47770
      H1    -0.62936   16.89427   -4.65719
       H    -4.65169   13.07710  -15.19499
       O    -4.83967   12.25109  -15.56971
      H1    -4.67188   11.50673  -14.96192
       H    -1.70096   19.06564  -14.03522
       O    -1.67466   19.08186  -15.00081
      H1    -1.28108   18.28438  -15.40077
       H    -1.65187   12.59207  -13.98712
       O    -1.69813   13.39907  -13.45007
      H1    -0.72948   13.55187  -13.23684
       H     1.70733    9.55667  -10.17251
       O     1.51448    9.16765  -11.01929
      H1     0.61724    8.85672  -10.81822
       H    -1.45407   10.04609  -14.26535
       O    -1.46242   10.94076  -14.74238
      H1    -2.01862   10.78362  -15.49366
       H    -6.20197   14.87727  -10.92526
       O    -6.75274   15.61358  -10.77015
      H1    -6.29879   16.05206  -10.03385
       H    -8.83532   18.60072  -13.45842
       O    -8.33247   17.90554  -12.99435
      H1    -7.77047   17.41510  -13.62596
       H     1.22550   14.30713   -6.73193
       O     0.85313   14.69270   -7.54150
      H1     1.40426   14.58820   -8.32626
       H    -5.85187   11.17819   -8.17335
       O    -5.26285   11.84723   -7.70618
      H1    -4.90771   12.35738   -8.49195
       H     2.93201   17.74951  -11.16901
       O     2.25705   18.36091  -11.42363
      H1     2.57773   19.22735  -11.19682
       H     2.12623   10.30642   -4.91925
       O     2.03601   10.88317   -5.67939
      H1     1.09802   10.81686   -5.90832
       H     1.98673   17.98511  -14.49108
       O     1.24869   18.18185  -13.96134
      H1     1.52353   18.26898  -13.07243
       H    -5.40751   11.11602  -12.71623
       O    -5.34989   11.92804  -12.17827
      H1    -5.69036   12.54562  -12.83727
       H    -7.83939   17.77516   -5.92144
       O    -7.77131   16.84007   -5.80203
      H1    -6.87943   16.59595   -5.90309
       H     5.11847   16.12617   -8.08361
       O     5.22092   15.19705   -8.12648
      H1     6.12287   14.99060   -7.82819
       H    -5.25632   17.29858  -13.86314
       O    -6.04794   16.91956  -14.31328
      H1    -6.18455   17.26316  -15.18641
       H    -1.41091   11.19358  -10.69315
       O    -1.23945   11.09130  -11.66300
      H1    -1.68366   11.80747  -12.05643
       H    -2.89069   16.54211   -4.22361
       O    -3.82074   16.85554   -4.07436
      H1    -3.90791   16.99075   -3.11416
       H    -5.16101   16.36356   -7.88794
       O    -5.35001   16.93504   -8.68178
      H1    -4.92373   17.79069   -8.35890
       H    -1.30551   11.22449   -7.01051
       O    -0.49304   10.71953   -6.80661
      H1    -0.06193   10.62454   -7.69127
       H    -6.25671   14.49043   -6.02411
       O    -5.59011   15.16693   -6.31310
      H1    -4.86522   15.03819   -5.63547
       H    -0.87613    8.21949   -9.07428
       O    -1.51774    8.61365   -9.65851
      H1    -2.02056    9.09186   -9.00863
       H    -3.79318   10.57476   -7.54281
       O    -3.26780    9.76743   -7.47177
      H1    -3.46831    9.45418   -6.55760
       H    -1.31840   14.26063  -15.27119
       O    -1.20260   14.67542  -16.17954
      H1    -2.03024   15.16891  -16.19005
       H    -7.81162   13.38596  -13.22756
       O    -6.94074   13.76453  -13.42164
      H1    -6.95355   14.72386  -13.30123
       H     2.04330   13.59111  -10.66310
       O     2.37328   13.62472   -9.72982
      H1     3.09221   14.19935   -9.64649
       H     3.20283   18.01709   -8.07691
       O     4.06664   18.00858   -7.68166
      H1     4.37958   18.94053   -7.74255
       H    -6.55330   12.69947   -6.87621
       O    -7.36746   13.05562   -6.51102
      H1    -8.01498   12.98645   -7.25303
       H     1.56798   13.95577   -4.40897
       O     1.53543   13.58095   -5.31625
      H1     1.38962   12.65031   -5.22833
       H    -3.37915   19.74478   -4.70265
       O    -3.03896   19.32723   -5.52313
      H1    -3.20904   18.38213   -5.38236
       H     1.61407   12.39060  -15.12539
       O     1.00303   12.15957  -14.40912
      H1     0.33771   11.52680  -14.70892
       H    -6.20392    9.18749   -9.06901
       O    -6.32975   10.08892   -9.42497
      H1    -7.29507   10.24507   -9.39943
       H    -2.09857   14.03694   -5.99881
       O    -1.79932   14.61024   -6.69887
      H1    -0.85559   14.65963   -6.74840
       H    -2.75583   14.68561  -12.57889
       O    -3.23831   15.46120  -12.17280
      H1    -2.66089   15.80735  -11.46896
       H    -2.10899    7.96544  -12.38828
       O    -2.72527    8.69614  -12.62786
      H1    -2.20996    9.53316  -12.42381
       H    -3.16172   12.71430   -4.10870
       O    -2.49526   12.97626   -4.71562
      H1    -1.69789   12.53691   -4.40443
       H     2.05304   10.27852   -7.66069
       O     1.69312   10.55252   -8.52500
      H1     2.13552   11.42414   -8.67665
       H    -2.86560   12.75797   -9.04976
       O    -1.99771   12.41733   -8.81645
      H1    -1.65042   13.28509   -8.51917
       H    -2.21370   15.70186   -8.55908
       O    -1.84962   15.91281   -9.43501
      H1    -1.74266   16.88559   -9.43495
       H   -10.00608   14.64380  -11.09684
       O    -9.23212   14.15592  -10.85823
      H1    -8.49364   14.85970  -10.92725
       H     0.92145   16.48246   -7.84284
       O     1.04479   17.44967   -7.86964
      H1     0.54858   17.68406   -8.70584

