165
frame 2 | Written by MDAnalysis XYZWriter (release 2.4.3)
       H     9.21222    6.19370   12.20835
       O     8.82880    6.58450   11.40750
      H1     8.39477    7.41674   11.63620
       H     8.64000   17.84377   11.46933
       O     8.83819   16.98099   11.07874
      H1     8.11582   16.45881   11.39938
       H     4.17850   12.41199   18.61441
       O     4.26935   11.48286   18.38934
      H1     5.18188   11.17667   18.57053
       H     6.54494   12.44051   15.34472
       O     7.19328   12.70750   16.00317
      H1     7.72704   11.93665   16.17037
       H    10.38635    6.35434   17.21737
       O     9.99078    7.17765   17.35469
      H1    10.57690    7.82919   16.99883
       H    10.80545    5.34343   13.77897
       O    10.51504    6.25446   13.90397
      H1     9.70961    6.09466   14.43966
       H     5.40389   19.01328   14.67812
       O     5.03331   19.69316   14.09559
      H1     4.14677   19.75560   14.44188
       H     5.83413    4.85434   17.75995
       O     5.95398    5.71536   18.23067
      H1     5.34444    6.24055   17.67995
       H    11.46360   13.13438   15.77586
       O    11.07818   12.49027   16.48050
      H1    10.97819   13.01275   17.31176
       H     4.44435   13.25363   13.49292
       O     5.27921   12.69921   13.50999
      H1     5.61298   12.81411   12.58372
       H     9.62951   11.35399   16.82453
       O     8.85429   10.85946   17.10475
      H1     8.88661   10.08016   16.50550
       H    10.77760    9.64834   13.89184
       O    11.18855    9.89233   13.06108
      H1    10.88065    9.25135   12.39777
       H     3.30856    6.55324   16.55851
       O     4.14124    7.11558   16.58368
      H1     3.89255    8.03671   16.35798
       H     3.09369   16.21005   12.86909
       O     2.22443   16.47499   13.25402
      H1     1.53274   16.20018   12.64623
       H     4.96070   16.82235   11.87108
       O     4.60830   15.91652   11.83479
      H1     4.51281   15.74037   10.87313
       H     6.38974   15.16647   12.56555
       O     7.27417   15.57005   12.78384
      H1     7.76430   14.98425   13.40699
       H     2.29442   14.41004   18.76828
       O     1.41284   14.50408   18.31146
      H1     1.41151   15.32181   17.77892
       H    11.41215   14.83052   14.52893
       O    11.84013   13.94815   14.49119
      H1    12.13185   13.78307   13.56845
       H     4.25521   11.38406    7.94259
       O     3.29153   11.46958    7.99640
      H1     3.19241   11.72444    8.91671
       H     9.91146    7.78883   15.03133
       O     9.60143    8.67014   15.03008
      H1     8.70691    8.58149   14.63825
       H     5.05554    6.20078   15.43375
       O     5.63272    5.76528   14.77812
      H1     5.19692    5.95693   13.96160
       H     3.42839   17.54551   16.14105
       O     2.95322   18.27937   15.73144
      H1     2.36174   17.77410   15.14671
       H    11.69084   14.90626   18.83189
       O    10.84468   14.46461   18.75949
      H1    10.18340   15.17762   18.49526
       H     9.67563   14.36311   14.79138
       O     9.02050   13.82226   14.32311
      H1     8.57591   13.47480   15.06562
       H     3.53832   10.35346   15.23123
       O     3.28365   10.05898   16.09364
      H1     4.03988   10.47453   16.50025
       H     5.54296   13.65888   10.34002
       O     5.75063   12.82650   10.83262
      H1     4.87930   12.43068   10.90234
       H     0.09173   13.48246   17.94507
       O    -0.52614   12.75801   17.72215
      H1    -1.10760   12.56698   18.51180
       H    -0.75674   13.60771   16.13669
       O    -0.55951   14.15030   15.36471
      H1    -0.90810   14.97916   15.60848
       H     8.86239    4.32112   14.45741
       O     8.58177    4.89113   15.23464
      H1     7.70376    5.22214   14.90649
       H     4.41367   15.11396   15.67258
       O     4.68566   15.77284   16.36538
      H1     5.20118   15.26307   17.02140
       H     6.59821   13.79544   17.35710
       O     6.44899   14.48948   17.99398
      H1     6.52995   14.07585   18.85143
       H     7.36996   12.09545   10.22253
       O     8.12534   11.50929   10.12599
      H1     8.67064   11.83810   10.83468
       H     0.97854    9.95342   12.99554
       O     1.73026   10.59269   13.01950
      H1     1.32026   11.45319   12.97622
       H     0.01265   13.29216   13.68752
       O     0.61692   13.04582   12.96210
      H1    -0.07182   12.98145   12.24221
       H     9.73753   12.82933   12.98087
       O     9.80583   12.26252   12.12929
      H1    10.42601   11.55731   12.36628
       H     4.32338    5.53959   12.03390
       O     4.25702    6.41304   12.43439
      H1     3.29798    6.51980   12.66681
       H     8.69060   16.88157   17.49383
       O     8.79145   16.04276   17.95869
      H1     8.04904   15.54043   17.60959
       H     7.04309   16.89889   14.19169
       O     6.84342   17.27816   15.07591
      H1     6.02020   16.76895   15.41679
       H     8.98068   10.49988    7.26754
       O     8.22718   10.13753    7.76693
      H1     8.16504   10.77127    8.52474
       H     6.09687   14.78995    8.56600
       O     5.36844   15.07315    9.08064
      H1     4.66532   14.93644    8.49295
       H     4.36048    8.04548   11.76383
       O     4.58737    8.64673   11.03629
      H1     5.59095    8.60806   10.97645
       H     8.03988   18.06182   15.92850
       O     8.79149   18.28390   16.53178
      H1     8.52913   19.09198   16.97687
       H    11.14677   14.30030   10.05295
       O    11.29740   13.38470   10.17360
      H1    10.70416   13.09550   10.88332
       H     1.68516   10.21643   16.77487
       O     0.83307   10.35285   17.13702
      H1     0.83760   11.19985   17.57093
       H     7.42079    6.95559   18.60658
       O     7.95347    7.58427   19.12929
      H1     8.71966    7.67563   18.56758
       H     6.96684    9.29209   18.93598
       O     6.82648   10.20682   18.66498
      H1     7.61049   10.39139   18.06709
       H     5.38209   19.04681   12.25454
       O     5.91105   18.57574   11.58777
      H1     5.46231   18.70921   10.76315
       H     7.01898    9.48020   12.30234
       O     7.60912    9.18215   11.56195
      H1     7.86590    9.96269   11.09412
       H    12.44692   13.26512   11.64683
       O    13.11898   13.12639   12.34082
      H1    13.18138   12.15103   12.19957
       H     4.31506    9.81670   12.42101
       O     4.80600   10.01624   13.24292
      H1     4.85112   10.91803   13.36830
       H     2.45719   14.43890   14.49449
       O     3.18329   13.96555   14.92035
      H1     2.82687   13.36290   15.56827
       H     2.66738   12.85102   10.56228
       O     3.15364   12.03227   10.68341
      H1     2.59686   11.46217   11.25987
       H    10.08436   17.22278   13.75672
       O    10.40566   16.50167   14.31161
      H1    10.03752   16.78753   15.14969
       H     6.55768    7.81942   15.15631
       O     6.97560    8.40233   14.49011
      H1     6.22527    8.98630   14.23275
       H    11.91033   10.78412   17.31816
       O    12.23981    9.88132   17.47169
      H1    12.84756    9.96894   18.16750

