165
frame 3 | Written by MDAnalysis XYZWriter (release 2.4.3)
       H    -0.66653   14.95923   -2.29652
       O    -1.62094   15.04898   -2.23685
      H1    -1.85982   15.98928   -2.45914
       H     1.75969   10.24008   -1.31326
       O     1.77450    9.39903   -1.73551
      H1     2.50575    8.96709   -1.25795
       H    -1.46220   12.61352    3.51127
       O    -1.72849   13.48536    3.12358
      H1    -2.22154   13.28607    2.31648
       H    -2.75019    5.03367   -0.11924
       O    -2.39559    4.30038   -0.68066
      H1    -2.24953    3.60581   -0.02360
       H    -3.67582    8.81142   -1.03518
       O    -4.24195    8.51382   -0.31990
      H1    -5.00151    8.11314   -0.80850
       H   -10.28763    6.25213    3.75468
       O    -9.46488    6.67258    3.45294
      H1    -8.75952    6.60761    4.10996
       H    -4.34768    9.07437   -4.12353
       O    -4.82455    9.83029   -3.77139
      H1    -5.77245    9.63371   -3.76386
       H    -8.05250   11.00139   -4.55628
       O    -7.88466   11.91758   -4.99617
      H1    -8.59236   11.96693   -5.64442
       H    -8.96006   10.76770   -1.19529
       O    -9.85912   10.90012   -0.90448
      H1   -10.30109   10.08756   -1.09937
       H    -2.17018   15.64083    1.76549
       O    -1.56460   16.28400    2.10519
      H1    -2.15254   17.05252    2.21971
       H    -6.76170    5.76152    0.68245
       O    -7.27218    5.77710   -0.13869
      H1    -7.85912    4.99947    0.02593
       H    -5.02893    5.86976   -3.92650
       O    -5.26091    5.42548   -3.06875
      H1    -4.73282    4.65374   -3.09150
       H     1.12212   12.80451   -0.49233
       O     1.68017   12.02894   -0.59678
      H1     2.39563   12.34464   -1.12284
       H    -3.69698    6.90446    0.58579
       O    -3.52038    6.05636    0.98529
      H1    -2.82984    6.22717    1.63130
       H     1.32083    6.99589    1.27093
       O     2.00102    6.35709    1.55734
      H1     2.63850    6.88257    2.02336
       H    -0.42602    5.80131   -2.66602
       O    -0.49608    4.83343   -2.51712
      H1    -1.21765    4.75149   -1.90244
       H    -9.13036    8.49379    1.36589
       O    -9.31430    7.84973    0.60745
      H1    -8.54382    7.25738    0.47433
       H    -7.96961   11.98546    2.55012
       O    -7.51439   11.80518    1.68606
      H1    -8.20754   11.40718    1.11737
       H    -4.43501    9.75206    1.03747
       O    -4.07707   10.23683    1.75653
      H1    -4.50911   11.06244    1.68752
       H    -2.16768   10.48471   -1.50344
       O    -2.42420    9.81264   -2.25247
      H1    -3.28272   10.00311   -2.64806
       H    -5.55689    8.54436    3.95881
       O    -5.98535    8.84097    3.07915
      H1    -5.46262    9.61393    2.90017
       H    -4.86592   11.82561   -4.60271
       O    -5.28629   12.70064   -4.83482
      H1    -6.14187   12.48553   -5.18601
       H    -0.12633   14.15097    2.60133
       O     0.71777   14.34881    2.14654
      H1     0.81873   15.24046    2.37291
       H    -9.80955   12.77908   -0.45940
       O   -10.07834   13.69982   -0.44937
      H1    -9.70189   14.04498   -1.28691
       H    -0.22076   14.15930    0.60036
       O    -0.66297   13.72830   -0.15548
      H1    -1.12036   14.39775   -0.63899
       H    -1.09330    5.71400    2.96656
       O    -1.84353    6.34316    3.11177
      H1    -2.53963    5.76188    3.54611
       H    -4.29125   14.22745    1.25024
       O    -3.80144   15.01309    1.00206
      H1    -4.41556   15.72179    1.02008
       H    -7.25533    5.42256    5.31096
       O    -7.62651    6.31079    5.24119
      H1    -8.01718    6.54691    6.08822
       H    -5.06513   12.73707    3.01541
       O    -5.06503   12.76410    2.05460
      H1    -5.94289   12.43622    1.74083
       H    -6.78680   11.32780   -1.72414
       O    -6.96418   10.55786   -1.16988
      H1    -6.80776    9.70704   -1.60429
       H   -10.19757   12.91913    3.84725
       O    -9.35764   13.23961    3.47680
      H1    -9.54499   13.93716    2.85342
       H    -1.25559    8.48777    3.10101
       O    -1.65197    9.37478    2.99868
      H1    -2.56313    9.23900    2.72522
       H    -1.42739   11.65919    5.20662
       O    -0.87147   11.27973    4.56427
      H1    -1.22986   10.49649    4.11074
       H    -4.12416    8.92874    7.79542
       O    -4.31400    8.95795    8.71832
      H1    -3.64383    8.36828    9.13151
       H    -2.54662   11.21824    0.65905
       O    -1.84308   11.27582   -0.00297
      H1    -1.40038   12.12606    0.08733
       H    -0.37856    8.92819    1.33375
       O     0.05496    8.17333    0.94077
      H1    -0.40602    8.12642    0.09835
       H    -9.23636    9.76269    3.63723
       O    -9.97872    9.30833    3.18593
      H1    -9.79032    8.32035    3.41196
       H    -6.04035   12.91378   -3.15598
       O    -6.55956   12.97148   -2.32405
      H1    -6.06557   13.56690   -1.77731
       H    -7.21278    4.87561   -2.70421
       O    -8.05834    4.49025   -2.86830
      H1    -7.94726    3.67423   -3.35484
       H    -3.07404   11.78986    6.75243
       O    -2.98303   12.25390    5.94079
      H1    -3.82458   12.17729    5.52680
       H     0.68443   11.91885    4.07300
       O     1.58681   12.20312    3.81962
      H1     1.40389   12.95254    3.17973
       H     1.52250    8.82112    3.92038
       O     1.08508    8.37655    4.64104
      H1     1.62711    7.58697    4.82933
       H    -5.80530    4.56081   -0.62029
       O    -5.24834    3.72966   -0.58049
      H1    -4.32905    4.04083   -0.53129
       H    -0.00628   12.06429   -2.32491
       O    -0.39034   11.78637   -3.15639
      H1    -1.04276   11.11966   -2.79554
       H    -4.53793    5.31834    3.69122
       O    -3.98220    5.20875    4.51025
      H1    -3.84027    4.26501    4.55234
       H    -7.20631    7.55569   -1.83998
       O    -6.31514    7.83358   -2.06441
      H1    -5.95106    7.00225   -2.38942
       H    -7.09596    9.69652    3.97176
       O    -7.56395    9.96169    4.82007
      H1    -7.36545    9.33797    5.47574
       H    -4.89342    6.01917    1.80809
       O    -5.69728    6.11614    2.37333
      H1    -5.78948    7.03397    2.60135
       H    -9.13761    6.29261   -2.90006
       O    -9.06281    7.21233   -2.68429
      H1    -9.79658    7.42650   -2.07575
       H     0.28781    8.13945   -1.91096
       O    -0.52053    7.73496   -2.33763
      H1    -1.09503    8.51597   -2.43735
       H    -8.93751    8.59585   -4.06357
       O    -8.44814    9.23818   -4.62806
      H1    -7.66995    8.81037   -5.02943
       H    -9.41182   13.73265   -3.44467
       O    -8.85154   14.20447   -2.80248
      H1    -7.94897   13.76265   -2.79442
       H    -3.78926   15.11368    5.77825
       O    -2.96615   15.52962    5.34414
      H1    -2.80443   14.76857    4.78953
       H    -6.07268    7.10812    5.70118
       O    -5.29596    7.73776    5.71825
      H1    -4.51677    7.15894    5.74408
       H    -6.03366   12.93507    5.17077
       O    -5.62271   12.27497    4.59057
      H1    -6.20718   11.53977    4.68040

