165
frame 1 | Written by MDAnalysis XYZWriter (release 2.4.3)
       H    -7.43088    8.68646  -18.14557
       O    -8.43316    8.61620  -18.20129
      H1    -8.84091    8.90879  -17.44398
       H    -6.92956    5.66922  -17.85782
       O    -6.22968    5.56755  -17.21147
      H1    -5.35238    5.30413  -17.65901
       H   -11.64600    8.37285  -18.90427
       O   -10.87852    8.26268  -19.47184
      H1   -10.08370    8.48085  -18.96988
       H    -7.62319   -1.66047  -16.76195
       O    -8.43438   -2.07749  -17.20397
      H1    -9.21102   -1.50116  -17.07663
       H    -4.59966   -2.18106  -15.71522
       O    -3.81750   -2.74246  -15.66023
      H1    -3.60329   -2.86605  -14.71132
       H    -0.46120    6.01621  -14.11959
       O    -0.72048    5.10358  -14.19846
      H1    -0.84694    4.99754  -13.27639
       H    -3.60619    5.94039  -11.32539
       O    -4.19141    5.23893  -11.62971
      H1    -4.82216    5.62601  -12.27434
       H   -11.07873    5.82194  -19.68914
       O   -11.56629    5.00046  -19.77527
      H1   -11.76256    4.79371  -18.83503
       H     4.87729    5.20259  -19.39936
       O     4.13851    4.85138  -18.92336
      H1     4.06322    5.39278  -18.14736
       H    -5.83229    7.28556  -17.21175
       O    -5.77125    8.23996  -17.40152
      H1    -5.50319    8.65791  -16.56879
       H    -6.36728    4.24056  -14.42823
       O    -6.13155    5.14492  -14.17036
      H1    -5.19463    5.24259  -14.35097
       H    -0.94583    7.65428  -17.92272
       O    -0.79095    8.00615  -17.03855
      H1    -0.95899    8.97256  -17.05724
       H     1.86199    9.43803  -18.50739
       O     1.55757   10.13837  -19.11971
      H1     2.02778    9.89656  -19.94427
       H     1.66704    3.37973  -14.54044
       O     2.02643    3.20843  -13.68080
      H1     1.25659    3.08132  -13.11552
       H    -0.31706   10.59635  -15.60161
       O    -0.82096   10.43892  -14.83108
      H1    -1.69970   10.43519  -15.21121
       H    -0.17440    3.90944  -18.24322
       O     0.16259    4.19521  -19.17349
      H1     1.05463    4.51348  -19.06594
       H    -0.08448    2.05976  -12.00028
       O     0.11360    2.90726  -11.47532
      H1    -0.76240    3.36479  -11.36814
       H    -8.09992   -2.04536  -18.97765
       O    -7.82002   -2.01162  -19.90424
      H1    -7.62082   -2.91702  -20.11391
       H    -5.66389    2.15351  -18.77326
       O    -4.78380    2.29004  -18.46351
      H1    -4.81770    2.03177  -17.54025
       H    -7.48334    6.76983  -14.23739
       O    -8.23148    7.39025  -14.08467
      H1    -8.43038    7.29174  -13.14407
       H     1.15372   -1.62316  -15.99036
       O     1.24631   -1.74829  -16.96508
      H1     0.64831   -1.12452  -17.34002
       H    -5.39044    8.86316  -14.53611
       O    -6.11724    9.48835  -14.60740
      H1    -6.89318    8.91002  -14.48176
       H    -3.83874    5.33001  -18.91675
       O    -3.73820    4.78396  -18.12073
      H1    -3.95570    3.82251  -18.27484
       H    -8.19443   -0.68171  -12.86573
       O    -8.34689   -1.57439  -13.20912
      H1    -8.83504   -2.07084  -12.55323
       H     0.75494    7.13811  -11.98669
       O     0.87129    7.23666  -12.90426
      H1     1.76155    6.83920  -13.10813
       H    -3.42979   -5.56810  -17.01199
       O    -4.27761   -5.12027  -16.88200
      H1    -4.14750   -4.22623  -16.47200
       H     0.08709   -0.31868  -13.31981
       O    -0.44196    0.49456  -13.19338
      H1    -1.34141    0.23365  -12.77504
       H    -9.71955    3.82568  -16.38817
       O    -9.43552    2.98773  -15.99107
      H1    -9.41145    3.16891  -15.02179
       H     1.37575    8.52870  -16.69174
       O     2.29448    8.71801  -16.92909
      H1     2.70504    9.22016  -16.17861
       H    -5.33895   -1.29089  -19.62025
       O    -5.29516   -0.53001  -19.02930
      H1    -4.54227   -0.00947  -19.36408
       H   -10.74189    1.13373  -19.60943
       O   -11.16643    1.85599  -19.11635
      H1   -10.47732    2.53125  -19.00107
       H    -1.74939    6.60216  -10.28721
       O    -2.53420    7.06360  -10.60435
      H1    -2.17909    7.55882  -11.37642
       H    -5.72127   -0.43891  -17.27225
       O    -6.00482   -0.86175  -16.50611
      H1    -6.10278   -0.15211  -15.88346
       H     3.63452    0.58401  -14.13321
       O     2.82458    0.90062  -14.57314
      H1     2.56530    1.68263  -14.05762
       H    -3.00976    2.13856  -11.90020
       O    -2.55778    3.06748  -11.88101
      H1    -3.23881    3.74124  -11.62717
       H    -8.54629    6.58075  -18.20609
       O    -8.68640    5.65720  -18.25871
      H1    -8.72758    5.53489  -19.19613
       H    -2.40404    1.22392  -19.91999
       O    -2.28845    0.25006  -19.86388
      H1    -2.27878    0.01017  -18.92778
       H    -3.21054   -0.77013  -12.19016
       O    -2.72960    0.03379  -11.87369
      H1    -2.24291   -0.43744  -11.11865
       H    -0.55187    2.53634  -16.41446
       O    -0.30635    3.47293  -16.67321
      H1    -0.34019    4.07386  -15.92810
       H    -9.23793    2.27517  -12.27337
       O    -9.54134    2.50561  -13.14251
      H1   -10.49955    2.30127  -13.17902
       H    -3.22177    4.56034  -16.18810
       O    -3.45991    4.52012  -15.23363
      H1    -2.60162    4.41744  -14.80472
       H    -6.37745    4.06749  -16.07496
       O    -6.60888    3.15482  -15.85495
      H1    -7.57931    2.98864  -16.11462
       H    -1.41393    0.08762  -16.18378
       O    -1.14194    1.01512  -15.95509
      H1    -0.65998    0.95214  -15.13787
       H    -9.51923    8.22932  -15.30262
       O   -10.33726    8.49779  -15.67077
      H1   -10.96111    7.86624  -15.34645
       H    -2.93733    1.67299  -15.84816
       O    -3.81957    1.99407  -15.66616
      H1    -3.73029    2.87606  -15.33505
       H    -1.48205   -2.05552  -17.88637
       O    -1.96544   -1.36575  -17.44733
      H1    -2.64390   -1.86215  -16.92280
       H   -13.32579    3.82365  -17.47846
       O   -12.38489    3.80303  -17.45965
      H1   -12.10388    2.95790  -17.84074
       H    -2.11494    6.72122  -19.42294
       O    -1.15341    6.63046  -19.42267
      H1    -0.91457    5.70675  -19.40429
       H   -10.78407   -0.25851  -15.50515
       O   -10.77778    0.34859  -14.76665
      H1   -10.19262    1.01949  -15.10604
       H    -3.18469    8.16735  -13.64556
       O    -3.94305    7.75571  -14.09597
      H1    -3.60389    6.95458  -14.46127
       H    -0.77802    8.59105  -12.81412
       O    -1.74143    8.71489  -12.57090
      H1    -1.81733    9.67807  -12.32392
       H     0.27273   -3.12381  -17.01407
       O    -0.14593   -3.99721  -17.10038
      H1     0.53194   -4.56638  -17.52023
       H    -7.34396    3.21406  -10.49656
       O    -6.58948    2.63506  -10.63124
      H1    -6.29919    2.81846  -11.51610
       H    -5.55498    2.13023  -14.24121
       O    -5.71324    1.61512  -13.42990
      H1    -4.77273    1.35116  -13.30323
       H    -3.42109    9.99419  -17.33529
       O    -3.10432   10.51146  -16.62585
      H1    -2.62166   11.23089  -17.07221

