165
frame 3 | Written by MDAnalysis XYZWriter (release 2.4.3)
       H    -5.04744    2.77207   -2.31479
       O    -4.49627    2.60335   -3.11096
      H1    -5.29594    2.52689   -3.69816
       H    -7.00763    5.69857   -6.53456
       O    -6.59677    5.06809   -5.93749
      H1    -7.36287    4.71533   -5.48758
       H   -11.85070    8.28990   -5.21489
       O   -11.11861    8.48077   -4.62551
      H1   -11.36014    8.23238   -3.68425
       H    -2.75019    5.03367   -0.11924
       O    -2.39559    4.30038   -0.68066
      H1    -2.24953    3.60581   -0.02360
       H    -8.04641    1.96662   -4.34045
       O    -7.16080    2.13087   -3.99462
      H1    -7.13831    1.57227   -3.22569
       H   -11.00766    5.71975   -4.78827
       O   -10.36606    6.09680   -5.38675
      H1   -10.50800    7.04780   -5.28350
       H   -12.17109    8.85744   -2.01583
       O   -11.27183    8.66983   -1.70755
      H1   -11.51071    8.05014   -1.02911
       H    -3.67582    8.81142   -1.03518
       O    -4.24195    8.51382   -0.31990
      H1    -5.00151    8.11314   -0.80850
       H    -6.92319    3.59512    6.81815
       O    -6.83208    3.66285    5.86867
      H1    -6.45452    2.79432    5.49522
       H   -10.28763    6.25213    3.75468
       O    -9.46488    6.67258    3.45294
      H1    -8.75952    6.60761    4.10996
       H   -10.16532    2.71190   -5.80155
       O    -9.73644    2.59338   -4.90098
      H1   -10.40237    2.94977   -4.31994
       H    -4.34768    9.07437   -4.12353
       O    -4.82455    9.83029   -3.77139
      H1    -5.77245    9.63371   -3.76386
       H    -8.96006   10.76770   -1.19529
       O    -9.85912   10.90012   -0.90448
      H1   -10.30109   10.08756   -1.09937
       H    -6.76170    5.76152    0.68245
       O    -7.27218    5.77710   -0.13869
      H1    -7.85912    4.99947    0.02593
       H    -5.02893    5.86976   -3.92650
       O    -5.26091    5.42548   -3.06875
      H1    -4.73282    4.65374   -3.09150
       H    -3.69698    6.90446    0.58579
       O    -3.52038    6.05636    0.98529
      H1    -2.82984    6.22717    1.63130
       H   -11.30144    1.93377    0.94968
       O   -12.24242    2.24018    0.83390
      H1   -12.56924    1.74175    0.06612
       H    -3.21781    1.53048    3.60821
       O    -3.45914    2.28919    3.02987
      H1    -4.19634    2.07847    2.44507
       H    -0.42602    5.80131   -2.66602
       O    -0.49608    4.83343   -2.51712
      H1    -1.21765    4.75149   -1.90244
       H    -9.13036    8.49379    1.36589
       O    -9.31430    7.84973    0.60745
      H1    -8.54382    7.25738    0.47433
       H    -7.96961   11.98546    2.55012
       O    -7.51439   11.80518    1.68606
      H1    -8.20754   11.40718    1.11737
       H    -5.56687    2.15139    0.45856
       O    -5.47911    1.27679    0.89288
      H1    -5.35341    0.44999    0.26975
       H    -4.43501    9.75206    1.03747
       O    -4.07707   10.23683    1.75653
      H1    -4.50911   11.06244    1.68752
       H    -2.16768   10.48471   -1.50344
       O    -2.42420    9.81264   -2.25247
      H1    -3.28272   10.00311   -2.64806
       H    -5.55689    8.54436    3.95881
       O    -5.98535    8.84097    3.07915
      H1    -5.46262    9.61393    2.90017
       H    -7.74261    2.33815    2.94029
       O    -7.69568    1.42986    2.60451
      H1    -6.89503    1.30761    2.12382
       H   -13.03410    7.00573    3.17423
       O   -13.55149    7.34184    2.49540
      H1   -13.05637    7.14276    1.69479
       H    -1.09330    5.71400    2.96656
       O    -1.84353    6.34316    3.11177
      H1    -2.53963    5.76188    3.54611
       H    -4.58661    5.57577   -6.04949
       O    -3.85253    5.93549   -5.60639
      H1    -3.25725    5.28627   -5.18078
       H    -7.25533    5.42256    5.31096
       O    -7.62651    6.31079    5.24119
      H1    -8.01718    6.54691    6.08822
       H    -7.23300   -0.15019   -2.00812
       O    -7.14418    0.74100   -1.70427
      H1    -7.82433    0.85321   -1.01128
       H   -11.07519    1.03846   -1.55924
       O   -11.94328    1.33179   -1.76662
      H1   -11.92756    2.08099   -2.38580
       H    -6.78680   11.32780   -1.72414
       O    -6.96418   10.55786   -1.16988
      H1    -6.80776    9.70704   -1.60429
       H    -1.25559    8.48777    3.10101
       O    -1.65197    9.37478    2.99868
      H1    -2.56313    9.23900    2.72522
       H   -10.09011    5.56810    1.81667
       O   -10.50596    4.89368    1.25143
      H1   -10.49491    4.17623    1.87507
       H    -4.79740    1.81949    5.68992
       O    -5.33663    1.74406    4.87858
      H1    -4.69931    2.12585    4.27298
       H    -9.23636    9.76269    3.63723
       O    -9.97872    9.30833    3.18593
      H1    -9.79032    8.32035    3.41196
       H    -7.21278    4.87561   -2.70421
       O    -8.05834    4.49025   -2.86830
      H1    -7.94726    3.67423   -3.35484
       H   -12.99349    3.64193   -0.13176
       O   -13.43762    4.29740   -0.71408
      H1   -14.11108    4.74162   -0.17615
       H   -12.30427    3.08587   -4.20778
       O   -11.88475    3.59903   -3.48659
      H1   -12.37323    4.38700   -3.31776
       H    -8.76431    4.59566    3.33585
       O    -9.15845    3.73903    3.49250
      H1    -8.97744    3.64957    4.45638
       H    -2.08203    1.68422    0.19794
       O    -1.82116    2.12982    1.02521
      H1    -2.56546    2.27989    1.66868
       H    -5.80530    4.56081   -0.62029
       O    -5.24834    3.72966   -0.58049
      H1    -4.32905    4.04083   -0.53129
       H    -4.53793    5.31834    3.69122
       O    -3.98220    5.20875    4.51025
      H1    -3.84027    4.26501    4.55234
       H    -7.20631    7.55569   -1.83998
       O    -6.31514    7.83358   -2.06441
      H1    -5.95106    7.00225   -2.38942
       H    -7.09596    9.69652    3.97176
       O    -7.56395    9.96169    4.82007
      H1    -7.36545    9.33797    5.47574
       H    -4.89342    6.01917    1.80809
       O    -5.69728    6.11614    2.37333
      H1    -5.78948    7.03397    2.60135
       H   -12.12278    6.11974    0.19122
       O   -12.01180    7.05537    0.16988
      H1   -11.07715    7.22273    0.50111
       H    -9.13761    6.29261   -2.90006
       O    -9.06281    7.21233   -2.68429
      H1    -9.79658    7.42650   -2.07575
       H    -3.07156    3.40561   -3.95538
       O    -2.47251    4.04556   -4.39756
      H1    -1.74943    4.23920   -3.76473
       H    -8.93751    8.59585   -4.06357
       O    -8.44814    9.23818   -4.62806
      H1    -7.66995    8.81037   -5.02943
       H    -2.95013    0.36285   -1.13562
       O    -2.68524    1.27253   -1.22479
      H1    -3.10415    1.76679   -1.91545
       H    -9.41694    4.17618    0.03253
       O    -8.72673    3.57117   -0.30506
      H1    -8.62726    3.87649   -1.22189
       H    -6.07268    7.10812    5.70118
       O    -5.29596    7.73776    5.71825
      H1    -4.51677    7.15894    5.74408
       H    -9.14240    0.37002    0.74286
       O    -9.50532    0.95150    0.06698
      H1    -9.17264    1.82711    0.22741

