165
frame 1 | Written by MDAnalysis XYZWriter (release 2.4.3)
       H     7.08107   -8.03989  -14.72751
       O     6.47876   -8.68798  -14.26380
      H1     7.06874   -9.32767  -13.78105
       H     8.09434   -5.83421  -14.46985
       O     8.67223   -6.47278  -14.01580
      H1     8.66330   -6.15790  -13.08174
       H     6.45908   -5.13270  -15.92718
       O     6.81947   -4.85556  -15.10267
      H1     6.07809   -4.36974  -14.72098
       H    10.51283   -7.25921  -16.32358
       O    10.52293   -7.55275  -17.22226
      H1    10.36277   -6.74044  -17.78835
       H    10.65682   -8.84649  -11.46716
       O     9.77956   -8.51856  -11.37366
      H1     9.85589   -7.60920  -11.19112
       H     6.24088   -9.47319  -10.82817
       O     5.81001   -9.07961  -10.01153
      H1     4.96066   -8.65603  -10.22776
       H    10.41884  -15.62806  -17.48355
       O    10.76867  -14.95923  -16.88512
      H1    10.75951  -14.11269  -17.39662
       H    12.20618  -17.23297  -14.74049
       O    12.55477  -16.48730  -15.22928
      H1    11.92583  -15.72497  -14.96494
       H     4.86328  -15.90145  -15.19586
       O     5.37057  -15.39144  -14.52830
      H1     6.03673  -16.03261  -14.18492
       H     7.09434  -14.19081  -11.99942
       O     6.38378  -13.62658  -12.37342
      H1     6.27033  -14.05675  -13.22243
       H     4.98122  -15.22897  -18.82417
       O     5.50808  -15.85573  -19.29492
      H1     6.02318  -15.25122  -19.85560
       H     5.53154  -12.16463  -15.34291
       O     5.95797  -12.73733  -16.02962
      H1     5.96113  -13.52873  -15.47031
       H     3.49414   -5.64385  -18.63561
       O     4.07461   -6.08974  -19.27621
      H1     4.09389   -5.46965  -19.99704
       H    10.33014   -1.45568  -18.66835
       O    11.10412   -1.48515  -18.03007
      H1    11.33593   -2.45638  -18.16588
       H    13.93381   -5.39810  -12.66076
       O    14.29062   -5.08429  -13.43177
      H1    13.50842   -4.78390  -14.02615
       H    10.92175  -12.24520  -17.53854
       O    10.65414  -12.78102  -18.31070
      H1     9.70826  -12.65471  -18.34876
       H     5.54217   -6.01908  -18.36587
       O     6.29572   -5.98306  -17.74483
      H1     6.94540   -5.40185  -18.16393
       H    11.92739   -4.07745  -14.81698
       O    12.19891   -4.78285  -15.37630
      H1    11.88590   -5.58904  -14.88790
       H     9.17880  -10.16459  -14.00498
       O     9.53386  -10.40290  -14.87229
      H1     9.00237   -9.96487  -15.47022
       H     7.04577  -12.36790  -11.02810
       O     7.60045  -12.36981  -10.24752
      H1     7.33095  -11.64637   -9.72229
       H     0.86438  -10.55150  -18.60573
       O     1.69790  -10.74667  -19.04843
      H1     2.41035  -10.57029  -18.37634
       H    10.00747   -2.73452  -11.91233
       O    10.36182   -3.49328  -12.35474
      H1    10.26109   -3.28361  -13.32072
       H    13.55224   -4.93942  -18.94765
       O    14.25144   -5.62505  -18.97967
      H1    15.04329   -5.03012  -18.83692
       H    14.05746  -12.74635  -13.43944
       O    14.33597  -13.08097  -12.55754
      H1    15.30382  -12.91029  -12.46542
       H    12.48060   -8.21192  -16.92083
       O    13.11083   -8.90811  -17.22461
      H1    13.34598   -8.58890  -18.12136
       H    15.14313  -11.24158  -17.77442
       O    16.12865  -11.37256  -17.68776
      H1    16.61548  -10.99848  -18.41854
       H    12.20940  -15.36268  -18.25201
       O    12.76881  -15.66342  -18.99289
      H1    13.65852  -15.86753  -18.61885
       H     2.10490   -9.04013  -19.56897
       O     2.07225   -8.12482  -19.84335
      H1     2.95705   -7.81164  -19.50879
       H     5.03612   -9.08610  -17.83019
       O     5.96635   -8.84874  -18.07576
      H1     6.04689   -7.90537  -17.87128
       H     3.85326  -13.41783  -19.11999
       O     4.12515  -13.87004  -18.25304
      H1     4.83329  -13.41202  -17.78883
       H     5.31215  -10.21991  -14.28495
       O     4.71996  -10.99607  -14.58576
      H1     4.27861  -11.35258  -13.82282
       H     7.82705   -9.22295  -17.72858
       O     8.72545   -9.63196  -17.63563
      H1     9.30693   -8.81693  -17.66033
       H    11.97054  -11.22495  -11.09539
       O    11.52934  -10.78366  -11.87435
      H1    12.19599  -10.12219  -12.12216
       H    15.50251   -8.34989  -15.19156
       O    15.35608   -9.00048  -14.43508
      H1    15.02216   -9.80617  -14.87582
       H    13.27587  -11.15268  -15.09115
       O    14.22980  -11.31072  -14.92736
      H1    14.40679  -12.23754  -15.07326
       H     9.10863   -3.10907  -16.16236
       O     8.19678   -3.01480  -16.52193
      H1     7.76414   -3.56992  -15.80932
       H    13.48179   -7.83433  -12.18898
       O    13.25739   -8.66528  -12.66542
      H1    13.89999   -8.58879  -13.38912
       H     9.46384  -14.66949  -13.92575
       O     9.32283  -15.28406  -14.61472
      H1     9.84500  -15.01779  -15.34799
       H     9.63135   -4.72178  -19.28366
       O    10.31174   -5.41243  -19.19226
      H1    10.88444   -5.56201  -19.95249
       H     2.68237   -9.00167  -16.84645
       O     3.33321   -9.69244  -17.10162
      H1     3.77749   -9.97036  -16.37097
       H     2.89859   -7.16654  -15.50699
       O     2.10704   -7.40705  -15.98608
      H1     1.51884   -6.68107  -15.98025
       H    11.80973   -7.48121  -13.69104
       O    11.33185   -7.16701  -14.47646
      H1    10.44026   -6.99947  -14.09225
       H     7.52003  -12.11919  -17.60884
       O     7.93854  -12.65214  -18.30265
      H1     7.64839  -13.54457  -18.19238
       H    14.60313   -7.98387  -16.90153
       O    15.38538   -7.53869  -16.73246
      H1    15.16598   -6.59965  -16.88197
       H    10.32943  -14.23361  -12.22029
       O     9.73044  -13.47945  -12.46840
      H1    10.31988  -12.77112  -12.81826
       H    10.90785  -10.69229  -15.71658
       O    11.72596  -11.12652  -16.09783
      H1    12.17166  -10.33615  -16.49235
       H     2.56643   -3.17018  -17.34008
       O     3.14738   -3.97010  -17.22500
      H1     4.03382   -3.53627  -17.41908
       H    11.67582   -4.53527  -18.31901
       O    12.34033   -3.83966  -18.45345
      H1    12.81926   -3.80036  -17.60655
       H     8.38739   -9.88312  -11.99052
       O     7.78922  -10.43464  -12.43425
      H1     8.08491  -11.37129  -12.27895
       H     9.91282   -5.10156  -11.70876
       O     9.47720   -5.75840  -11.17823
      H1     8.63528   -5.39508  -10.83338
       H     4.42968   -6.12131  -13.26766
       O     4.18315   -6.79177  -13.94193
      H1     4.95152   -7.30537  -14.15125
       H     8.24278  -16.94963  -18.50855
       O     8.03139  -16.20531  -17.89408
      H1     7.13617  -15.95216  -18.20157
       H     2.48183  -12.75920  -13.59984
       O     3.02025  -12.35048  -12.93608
      H1     3.71122  -12.95198  -12.54213
       H     7.93168   -3.39413  -18.40091
       O     7.88514   -3.93360  -19.19531
      H1     7.36954   -3.37595  -19.78889
       H     7.93849  -16.24419  -13.85888
       O     7.33287  -16.51263  -13.18296
      H1     7.35666  -17.46025  -13.22019

