165
frame 11 | Written by MDAnalysis XYZWriter (release 2.4.3)
       H    18.47008    4.89415    5.72108
       O    18.09005    4.11432    6.08467
      H1    17.46594    4.44909    6.69808
       H    18.15650    6.93991    8.25476
       O    18.66076    6.14337    8.49524
      H1    19.32583    6.04123    7.83304
       H    15.38342   12.55331    5.05494
       O    16.14826   12.34396    4.43868
      H1    15.88451   11.54325    4.02779
       H    15.99671    2.84221    2.74915
       O    16.54709    3.27651    2.07711
      H1    16.84394    2.61614    1.46259
       H    17.48146    4.86669    2.15656
       O    18.25191    5.40531    2.40376
      H1    19.02320    4.82167    2.30784
       H    18.54771   -2.77171    0.65667
       O    18.25488   -3.67702    0.51110
      H1    18.29737   -4.27674    1.27887
       H    15.78229    3.18785    8.45290
       O    15.63552    3.75725    7.70814
      H1    15.16872    4.48275    8.09713
       H    13.77079    9.73730    1.72993
       O    13.03141    9.30762    1.20998
      H1    13.50167    8.96150    0.39320
       H    18.65122   10.00028   -3.33850
       O    18.16706   10.26919   -2.56185
      H1    18.71217   10.89622   -2.07359
       H    14.98337    2.72860   -5.63631
       O    14.65844    2.79520   -4.72804
      H1    14.10885    3.55196   -4.69755
       H    19.08240    7.59371   11.00452
       O    18.56752    6.82342   11.16717
      H1    18.56764    6.37885   10.22198
       H    10.63714    4.56592   -2.67525
       O    11.11605    5.37442   -2.63355
      H1    11.83007    5.30980   -1.99068
       H    14.20343    5.46875    5.36857
       O    13.81750    4.67657    5.80599
      H1    14.46420    4.24037    6.39898
       H    18.18852    6.86656   -4.53623
       O    17.76839    6.45629   -3.75729
      H1    17.64089    5.51232   -3.90938
       H    12.19474    4.72641    6.58146
       O    11.45756    4.49428    7.19110
      H1    10.96674    3.80790    6.71089
       H    18.26180    0.96104    0.34606
       O    17.81345    1.75958    0.01421
      H1    18.56828    2.41584   -0.12834
       H    16.11163   -1.49920   -4.24258
       O    16.24517   -0.67740   -3.78668
      H1    15.37157   -0.41385   -3.49353
       H    19.16311    1.04711    2.70206
       O    19.61895    0.30284    2.27603
      H1    19.97935   -0.22986    2.95616
       H    12.59562    8.00811    6.93848
       O    13.32596    8.43764    6.44654
      H1    13.05760    9.34295    6.30785
       H    14.68175    0.37889   -1.35423
       O    14.36850    0.82249   -2.16229
      H1    14.61489    1.73482   -1.93389
       H    18.74709    6.16302    4.05705
       O    18.51638    6.28659    4.96879
      H1    19.25021    6.72481    5.42952
       H    14.53090    3.47946    4.91150
       O    14.90538    2.72597    4.36076
      H1    14.22361    2.07158    4.47768
       H    19.31287    1.95718    7.55215
       O    19.66408    2.77926    7.94424
      H1    19.00626    3.45827    7.52809
       H    17.30938    8.15078    4.86496
       O    16.74299    8.52489    4.19486
      H1    15.99236    7.88489    4.18805
       H    17.86341   12.15629    5.44464
       O    18.23217   11.87557    6.28533
      H1    19.19094   12.00170    6.26555
       H    16.43925    1.39205    9.49003
       O    15.75045    2.04105    9.76056
      H1    14.88256    1.59320    9.55459
       H    16.22562    8.59062    7.95755
       O    16.46379    7.76647    8.36021
      H1    15.63624    7.32554    8.58327
       H    17.34499   -0.75528    9.03770
       O    17.75249    0.10744    8.90470
      H1    18.51118    0.16645    9.58415
       H    16.74317   -3.53997    1.06133
       O    15.72863   -3.45200    1.20402
      H1    15.36194   -3.22708    0.30321
       H    11.58207    2.06936   -1.61075
       O    11.32198    2.78119   -1.04052
      H1    10.41141    3.05021   -1.37886
       H    16.90475   -0.13208    4.97700
       O    16.38193    0.35524    4.33465
      H1    16.46989    1.30622    4.38907
       H    10.29838    3.30399    1.84643
       O    10.44358    2.38718    1.55194
      H1    10.76612    2.51796    0.63816
       H    10.57274   -1.29247    3.29571
       O    11.46859   -1.42850    2.92343
      H1    11.92942   -0.57846    2.93742
       H    13.90695    7.17568    3.31519
       O    14.13781    6.98103    4.22779
      H1    13.75064    7.63708    4.83075
       H    16.22660    2.65292   -0.58284
       O    15.59559    3.11235   -1.12090
      H1    16.15445    3.15910   -1.90975
       H    16.44492   -2.78304   -0.94499
       O    15.59429   -2.73027   -1.42669
      H1    15.39362   -1.80027   -1.59393
       H    12.62005    4.96205   -3.66127
       O    13.02904    4.84763   -4.50463
      H1    13.80599    5.46770   -4.52229
       H    16.60649    3.45202   -4.31893
       O    17.30981    3.71947   -3.70308
      H1    18.17639    3.59149   -4.11462
       H    18.84922   -3.28031    6.70664
       O    19.05239   -2.36546    6.82605
      H1    19.64912   -2.06747    6.15281
       H    13.83334   -1.24638   -0.32569
       O    14.45988   -0.72341    0.19496
      H1    14.23544   -0.95610    1.13913
       H    15.29997    9.29874    6.34428
       O    15.52992   10.15543    6.73027
      H1    16.33660   10.45028    6.26289
       H    17.73596    3.19094    3.43678
       O    18.43564    2.65800    3.80645
      H1    18.39650    2.88473    4.73034
       H    18.71604    0.73648   -5.57289
       O    17.98759    0.42240   -6.14524
      H1    17.45741   -0.13493   -5.51563
       H    20.03983    8.07261   -2.04164
       O    20.05017    7.36684   -2.76615
      H1    19.18787    7.12184   -3.03627
       H    15.08914   -0.81988    4.03810
       O    14.56878   -1.61466    3.87100
      H1    13.65734   -1.26671    3.93661
       H    10.55531    8.19854    2.82441
       O    10.81116    7.71686    2.00249
      H1    11.73529    7.95175    1.83422
       H    15.65068    7.55729    0.18258
       O    14.90272    7.76334   -0.38457
      H1    14.55036    6.92597   -0.60360
       H    16.32182    9.85945   -2.03222
       O    15.36906    9.94961   -1.88077
      H1    15.15459    9.09452   -1.40370
       H    15.89245    6.85611   -3.93539
       O    15.24632    7.53338   -4.33332
      H1    15.45969    8.32788   -3.80415
       H    12.36605    1.79655    3.48111
       O    12.67445    1.03061    3.94174
      H1    11.91651    0.76499    4.46873
       H    14.44379   11.90488    0.46484
       O    15.30307   11.45745    0.32499
      H1    15.22750   11.02295   -0.55802
       H    13.54627    6.61167    9.53738
       O    14.28717    6.00463    9.63065
      H1    14.84724    6.36665   10.35364
       H    15.58435   10.61357    1.82131
       O    15.32088   10.34622    2.72337
      H1    15.94693    9.77250    3.14089
       H    14.20821    4.65113   -0.68699
       O    13.65624    5.40680   -0.85540
      H1    13.17928    5.54650   -0.06110
       H    17.49539    7.23012    1.64221
       O    17.68733    7.81595    0.85142
      H1    18.37632    7.36120    0.45249

