165
frame 11 | Written by MDAnalysis XYZWriter (release 2.4.3)
       H     0.42734   14.35164   -1.51566
       O    -0.11764   13.93462   -2.21116
      H1    -0.83634   14.53966   -2.41737
       H     3.30617    9.20539   -3.44933
       O     3.06587    9.49052   -4.34995
      H1     3.10804    8.64422   -4.88536
       H     2.73045   16.78783   -3.33783
       O     3.32565   16.25683   -3.90919
      H1     2.88173   15.42318   -4.04365
       H     7.13949   10.35454   -2.32348
       O     6.34915    9.80681   -2.13788
      H1     5.77141    9.80954   -2.92242
       H    -0.00715    8.70278   -6.37378
       O    -0.18507    8.14937   -7.12846
      H1    -0.49180    8.89799   -7.68570
       H     0.56654    5.11028   -7.96600
       O     1.43025    5.05091   -8.32666
      H1     1.18856    5.19842   -9.23348
       H     2.04458    4.88230    1.35523
       O     2.38979    4.00704    1.43220
      H1     1.82969    3.49735    0.83920
       H     7.68950   14.50140   -5.06877
       O     8.34983   14.38383   -4.37317
      H1     7.82269   14.06260   -3.61782
       H     3.83192    6.15846   -5.17437
       O     4.11898    7.03840   -5.46532
      H1     3.99598    7.05177   -6.39845
       H     5.73663   12.95701   -1.62085
       O     5.08779   12.25287   -1.34379
      H1     5.50739   11.41408   -1.66471
       H     0.47367    6.88747    0.93937
       O     1.34081    6.46548    0.96296
      H1     1.84575    7.21532    1.28899
       H     4.64623    5.69447   -2.43504
       O     4.43026    4.79712   -2.19117
      H1     4.46385    4.87564   -1.22232
       H     2.69750   10.33670   -8.64453
       O     3.56581   10.66617   -8.32763
      H1     3.84095   11.32602   -8.92072
       H     6.84221    9.95166    1.25089
       O     7.13334    9.01286    1.49341
      H1     7.97837    8.95824    1.02219
       H     5.04540    4.45491   -8.57329
       O     4.37696    5.11772   -8.86054
      H1     3.60231    4.80088   -8.33830
       H     2.29414    7.01899   -8.36574
       O     2.20711    7.88880   -8.74964
      H1     1.37591    8.09711   -8.24864
       H     2.25507    4.49764   -2.35770
       O     1.56815    3.76754   -2.37249
      H1     1.59598    3.43998   -3.28057
       H     2.21352   10.81845   -5.51362
       O     1.37499   11.19940   -5.84111
      H1     0.70929   10.63855   -5.35762
       H    -0.25693   11.59582   -2.28404
       O    -0.58965   10.82094   -2.78851
      H1    -1.50981   10.80267   -2.76199
       H     4.36160    8.19386   -0.83030
       O     3.90420    8.51097   -1.60537
      H1     3.25539    7.84589   -1.87723
       H    -1.09114   12.60561   -0.34267
       O    -0.78134   11.92542    0.21079
      H1    -0.17116   11.37346   -0.22961
       H     5.67887    7.95415    1.03064
       O     4.86340    7.45416    0.87807
      H1     4.26759    7.66689    1.60967
       H     9.32374    8.09948   -0.72910
       O     9.40476    8.74310   -0.00516
      H1    10.00402    8.32907    0.62058
       H     4.86481   11.89753   -3.61238
       O     5.14227   11.23771   -4.24114
      H1     4.28552   10.77738   -4.44512
       H    -2.47180   10.82807   -6.48866
       O    -1.64332   11.21735   -6.19642
      H1    -1.40268   11.87213   -6.90799
       H     5.87372   14.94284   -6.44505
       O     6.42592   14.17363   -6.09235
      H1     5.72655   13.46889   -5.98567
       H     2.80601    8.24269    3.25288
       O     2.67958    8.53366    2.32888
      H1     2.06628    9.24354    2.33586
       H    -3.04981    6.26350   -5.91601
       O    -2.95373    6.78398   -5.12112
      H1    -2.03499    6.74960   -4.91388
       H     5.28461    1.74358   -3.23617
       O     5.43889    2.53693   -3.75400
      H1     5.19568    3.32503   -3.17596
       H    -0.71082    6.00672   -0.99635
       O    -0.80313    5.29671   -1.64954
      H1     0.05473    4.84218   -1.69471
       H     8.12679    6.21195   -6.37520
       O     8.53114    5.61954   -7.02225
      H1     9.50948    5.69644   -6.94163
       H     7.08820    9.76853   -6.87315
       O     7.23530    9.98593   -5.96302
      H1     6.45754   10.48101   -5.61058
       H     4.25991    3.93380   -4.94720
       O     3.42514    4.28898   -5.26139
      H1     2.92085    3.49384   -5.33393
       H     8.94575   11.40501   -3.01892
       O     8.52999   11.47620   -2.09983
      H1     9.27335   11.29127   -1.51768
       H     1.45860    6.49783   -3.06122
       O     1.93367    6.79654   -2.24742
      H1     1.33169    6.99376   -1.53297
       H    -1.17044    7.83535    0.28457
       O    -0.56019    7.95719   -0.46860
      H1    -1.14714    8.32170   -1.18583
       H     0.70662   11.01670    3.02752
       O     1.09962   10.99489    2.13835
      H1     0.49687   11.52129    1.57773
       H     6.98854    9.87571   -9.37395
       O     7.17176    9.27304   -8.67319
      H1     6.29121    8.82492   -8.56119
       H     6.04692    7.14469   -5.62334
       O     6.96961    7.25096   -5.41226
      H1     7.21357    8.10961   -5.68488
       H     1.17421   13.52486   -3.48447
       O     1.73246   13.54754   -4.23553
      H1     1.41268   12.79131   -4.76451
       H     3.99175    4.39084    1.11682
       O     4.86717    4.75013    0.68691
      H1     4.76977    5.72353    0.64941
       H     6.13028    7.84524   -2.43448
       O     6.09706    6.95922   -2.83158
      H1     6.17720    7.16135   -3.76495
       H     8.07756   13.17152   -6.76491
       O     8.51304   12.31494   -7.09670
      H1     8.54568   11.75618   -6.30349
       H     6.59656   12.22256    1.44985
       O     5.91760   11.58360    1.30784
      H1     5.68189   11.73317    0.37569
       H     1.75982   10.33928   -1.02195
       O     1.75443   11.29902   -1.03962
      H1     2.64043   11.54079   -0.84277
       H    -3.42743   13.14116   -3.89088
       O    -2.49799   13.38896   -3.94775
      H1    -2.08085   12.55103   -4.13633
       H     7.19731   14.96874   -1.58203
       O     7.15781   14.13229   -2.03657
      H1     7.65075   13.56155   -1.42329
       H    -0.76562    6.22409   -6.92872
       O    -1.19837    5.33649   -6.98285
      H1    -1.62764    5.28001   -7.85164
       H     1.13017   10.82613   -7.65906
       O     0.93961   10.75177   -8.60555
      H1     1.10315   11.69131   -8.83582
       H     4.74178    7.13832   -8.60176
       O     4.94825    7.91105   -8.08420
      H1     4.12881    8.45223   -8.12303
       H    -0.52651    5.96371   -3.46284
       O    -0.21463    6.42158   -4.28197
      H1     0.03797    7.32254   -4.11050
       H     1.13803    9.32064   -4.46667
       O     0.22882    9.07176   -4.53945
      H1    -0.20223    9.71516   -3.95583
       H     9.07424    8.29640   -3.65479
       O     9.39258    8.95041   -4.37585
      H1     8.61319    9.37616   -4.76569
       H     9.50696    6.48928   -2.42046
       O     8.88677    7.23043   -2.29747
      H1     7.96413    6.96111   -2.52779
       H     4.09221   12.19324    1.69583
       O     3.22704   12.56337    2.07905
      H1     2.52014   11.93658    1.94296

