165
frame 6 | Written by MDAnalysis XYZWriter (release 2.4.3)
       H   -14.31149  -12.07863   10.11129
       O   -14.13444  -12.53047    9.33502
      H1   -14.48881  -11.98846    8.61331
       H   -11.03955  -16.45863   -4.01212
       O   -10.47248  -16.45725   -4.80729
      H1    -9.85594  -17.12993   -4.54695
       H   -15.83075  -12.65863   -0.08655
       O   -16.26523  -12.74381   -0.92901
      H1   -16.77063  -13.52977   -0.78224
       H   -20.22060  -13.47985    0.22211
       O   -19.43733  -13.05395   -0.10622
      H1   -19.03518  -12.67283    0.67866
       H   -17.79495  -19.72306    6.61318
       O   -18.52580  -19.09332    6.90372
      H1   -18.59637  -19.29935    7.86336
       H   -10.49901  -18.60849    5.78569
       O    -9.67385  -18.51301    5.23665
      H1    -9.38997  -19.42081    5.14814
       H   -17.65586  -13.05315    2.79960
       O   -18.07995  -12.21960    2.39394
      H1   -17.50023  -11.43368    2.54676
       H    -9.87590  -17.38148    2.12664
       O    -9.24094  -18.04754    2.45615
      H1    -9.59719  -18.27637    3.28722
       H    -8.34190  -12.98522    6.55952
       O    -8.22556  -12.57547    5.68922
      H1    -9.00035  -12.90247    5.16883
       H    -9.28777  -10.24150    2.67529
       O   -10.10086  -10.05059    3.16782
      H1   -10.66554  -10.83566    3.08398
       H   -15.12542  -18.84549   11.10808
       O   -14.98830  -18.38021   11.91673
      H1   -14.08277  -18.04242   11.80846
       H   -18.08159  -15.77074    6.36251
       O   -18.72214  -15.04666    6.62857
      H1   -19.52212  -15.12914    6.05795
       H   -17.64986  -14.99518    4.03656
       O   -17.20895  -14.57491    3.23722
      H1   -16.61738  -13.99056    3.68217
       H    -9.97925  -14.38047    4.21352
       O    -9.85256  -13.53768    3.75368
      H1    -9.29863  -13.64039    3.00557
       H    -9.89574  -13.35558   -1.07391
       O    -9.20858  -12.75992   -1.20423
      H1    -9.67428  -11.89810   -1.45663
       H   -10.24093  -14.42352    7.82398
       O    -9.75229  -15.23124    7.94033
      H1   -10.33866  -15.89936    8.27511
       H   -16.05939  -19.02516   -0.10786
       O   -16.05436  -18.06647    0.24225
      H1   -16.03713  -18.09060    1.25504
       H   -10.16107  -18.74140   -1.82051
       O    -9.73844  -18.55944   -2.69611
      H1   -10.19804  -19.04643   -3.43228
       H   -16.30075  -17.49562    4.06124
       O   -15.63780  -17.69134    3.38320
      H1   -15.06656  -18.32913    3.73712
       H   -15.28119  -13.98292    9.18823
       O   -15.96993  -14.69908    9.17522
      H1   -15.95632  -15.19795   10.00511
       H   -12.18853  -17.19125   10.70247
       O   -12.50196  -17.20233   11.62623
      H1   -12.16304  -16.39691   12.06851
       H   -18.04590  -13.46979    6.58033
       O   -17.60753  -12.56594    6.43361
      H1   -17.59036  -12.22580    7.29678
       H   -12.44921  -11.81468    4.14146
       O   -12.26659  -12.02697    3.23100
      H1   -11.39380  -12.50512    3.23661
       H   -14.98993  -13.94967    1.81514
       O   -14.42693  -13.21922    1.38155
      H1   -13.64089  -13.12479    1.92124
       H   -12.15204  -16.09846    1.85706
       O   -11.48819  -16.57198    1.36344
      H1   -11.19215  -15.98464    0.67057
       H    -9.87287  -16.64852    5.04099
       O    -9.61602  -15.75290    5.26763
      H1    -9.70396  -15.59834    6.20643
       H    -7.56073  -17.57158    2.89169
       O    -6.71625  -17.16097    2.99348
      H1    -6.66922  -16.48703    2.26639
       H   -12.03495  -11.92681    6.32721
       O   -12.18620  -11.09190    5.84163
      H1   -11.28165  -10.66811    5.89859
       H    -8.16673  -18.58922   10.22058
       O    -8.79674  -18.59597    9.48250
      H1    -8.26309  -18.46476    8.65998
       H   -13.37835  -18.52579    7.63576
       O   -13.98363  -17.92633    8.11808
      H1   -14.66224  -18.53143    8.49668
       H   -18.77201  -14.26774   -1.11936
       O   -18.42447  -14.87033   -1.83623
      H1   -18.67069  -14.47055   -2.65155
       H    -8.07644  -18.16006    6.35064
       O    -7.45753  -18.14615    7.09871
      H1    -7.33564  -17.27312    7.52189
       H   -13.59848   -9.21259    2.82917
       O   -14.10130  -10.00262    2.74006
      H1   -13.39855  -10.64701    2.51736
       H   -18.35483  -16.40607   -1.06719
       O   -18.50165  -17.30322   -0.79278
      H1   -17.76208  -17.69922   -0.33447
       H   -10.20334  -14.39114    9.71733
       O   -10.36969  -13.56248   10.22479
      H1   -10.80404  -13.89329   11.02446
       H   -15.76122  -12.11524   -3.67606
       O   -14.94610  -12.69552   -3.49601
      H1   -15.06914  -12.91369   -2.56313
       H   -15.02885  -11.59642    4.14235
       O   -15.30747  -12.33441    4.68735
      H1   -15.63037  -11.95130    5.55064
       H   -17.40715  -13.22724    9.28753
       O   -17.98630  -12.48765    9.11647
      H1   -17.98658  -11.90234    9.87803
       H    -6.95136  -16.09451    0.35904
       O    -6.67609  -15.42010    0.94438
      H1    -7.36370  -14.73116    0.94759
       H   -14.56343  -16.58198    7.32955
       O   -15.06958  -15.83921    6.94292
      H1   -15.58720  -15.53131    7.72689
       H    -7.90980  -12.44000    1.64164
       O    -8.42162  -13.21378    1.41247
      H1    -8.74769  -12.90048    0.58495
       H   -18.07063  -18.15091   -2.36415
       O   -17.83943  -18.43673   -3.23753
      H1   -18.14059  -19.31386   -3.25958
       H   -17.76638  -17.49805    6.16831
       O   -17.22997  -16.83483    5.69982
      H1   -16.37038  -16.69463    6.05129
       H   -11.94404  -13.74121   -1.81829
       O   -11.69901  -14.23055   -1.03305
      H1   -12.44422  -14.14414   -0.49150
       H   -11.98311  -13.13978    8.18738
       O   -11.47447  -13.27492    7.35362
      H1   -12.10062  -13.62544    6.72617
       H   -15.44077  -10.46241    7.11950
       O   -14.82409  -11.21594    7.06284
      H1   -13.99548  -10.82560    6.68633
       H   -13.70252  -19.38125   -5.09793
       O   -13.40454  -18.51353   -5.36617
      H1   -13.37749  -18.43414   -6.32481
       H    -8.01702  -17.70669   -1.77201
       O    -7.29414  -17.11489   -1.51676
      H1    -7.15970  -16.51073   -2.21405
       H   -14.06554  -13.43091    5.35829
       O   -13.46054  -14.13845    5.65825
      H1   -14.10050  -14.67179    6.20907
       H   -10.44368  -17.57614    9.46805
       O   -11.17897  -16.95927    9.23890
      H1   -11.89589  -17.47964    8.85334
       H   -12.57510  -17.41456   -2.20539
       O   -12.61613  -16.82837   -2.99148
      H1   -12.98032  -17.37002   -3.72316
       H   -14.08900  -15.80480    3.05664
       O   -13.21387  -15.39021    3.26902
      H1   -13.42055  -14.95013    4.09400
       H   -17.10320  -15.73404   12.10629
       O   -16.10013  -15.84481   12.13517
      H1   -15.91394  -16.81085   12.04146
       H   -12.90200  -14.08425   -4.31924
       O   -12.14901  -13.97857   -3.68894
      H1   -12.26391  -14.77794   -3.16809
       H   -12.88398  -17.64716    0.31454
       O   -13.14304  -18.23749   -0.39530
      H1   -14.08874  -18.23415   -0.44992

