165
frame 10 | Written by MDAnalysis XYZWriter (release 2.4.3)
       H   -16.47739   -5.99564    9.23214
       O   -17.12623   -6.58935    8.80014
      H1   -17.95556   -6.15718    8.74347
       H    -6.77307   -8.79813    3.83601
       O    -6.70450   -8.79821    4.84539
      H1    -7.57310   -8.46273    5.13393
       H    -7.77163   -7.93658    8.72701
       O    -8.67630   -8.12894    8.41918
      H1    -8.87369   -9.08148    8.67620
       H    -6.44372   -4.63519    5.91773
       O    -7.19888   -4.36568    5.36890
      H1    -7.07896   -3.48504    5.00826
       H    -8.88433   -2.23187    2.01079
       O    -8.05553   -1.77625    1.95715
      H1    -8.16086   -0.92820    2.38770
       H   -13.29001   -7.04346   10.24221
       O   -14.12753   -7.47435   10.00134
      H1   -14.46760   -7.75309   10.82794
       H    -8.88700  -11.89010    6.06370
       O    -9.66433  -12.10367    5.56066
      H1   -10.35023  -12.36977    6.19867
       H   -10.82139   -8.72481    1.71402
       O    -9.91435   -8.67216    2.08467
      H1    -9.47910   -7.92994    1.61260
       H   -13.26678   -2.80190   -1.00010
       O   -12.55429   -2.21482   -0.92557
      H1   -11.99091   -2.50188   -0.12713
       H   -11.63788   -4.85252    3.40072
       O   -11.93587   -4.66158    4.29633
      H1   -11.63986   -5.42818    4.78552
       H    -9.37186   -4.48081    7.43620
       O    -9.02440   -3.58728    7.25847
      H1    -8.39901   -3.86915    6.54702
       H   -10.64763    0.59738    2.93122
       O   -10.55564    1.33327    2.29725
      H1   -10.74532    0.86110    1.47088
       H   -10.84367  -12.22845    0.47231
       O   -11.13828  -12.07606    1.39802
      H1   -10.36577  -11.59505    1.73731
       H   -13.61356   -1.68090    1.85143
       O   -13.51175   -2.61439    1.75788
      H1   -13.82625   -2.89107    2.58899
       H   -16.28661   -3.90975   11.06478
       O   -16.22428   -4.17471   10.10947
      H1   -15.29350   -4.13016    9.94983
       H   -11.46218   -1.15688    4.17936
       O   -10.64751   -0.84627    3.76214
      H1   -10.17457   -0.48505    4.54925
       H   -14.42573   -1.87108    5.25305
       O   -14.15862   -0.93542    5.35830
      H1   -15.01368   -0.47744    5.14363
       H    -7.66852   -3.16156    8.69473
       O    -7.35671   -3.49673    9.51313
      H1    -6.76242   -4.19128    9.15988
       H    -5.43136   -7.48749    4.85771
       O    -4.59157   -7.02618    5.05968
      H1    -4.63940   -6.20437    4.56303
       H   -10.66149   -3.04698    6.75802
       O   -11.55693   -2.78215    6.46907
      H1   -11.73453   -3.31561    5.68779
       H    -8.02348   -7.32420    0.04125
       O    -8.61961   -6.68866    0.45612
      H1    -8.22430   -6.39754    1.32004
       H   -15.45963   -4.09098    2.82732
       O   -16.22199   -4.32705    2.29225
      H1   -15.85424   -4.95192    1.67031
       H    -5.03464   -2.02786    4.00766
       O    -5.41444   -2.58106    3.29307
      H1    -6.28530   -2.21525    3.08194
       H   -12.78258   -9.95961    1.95745
       O   -12.56784   -9.12399    1.43249
      H1   -12.28721   -9.50430    0.60317
       H   -12.11909  -10.64300    3.68592
       O   -12.95684  -10.94763    3.22811
      H1   -13.47952  -11.54581    3.80299
       H   -11.09074   -6.63135   10.01234
       O   -11.24111   -7.18058   10.78423
      H1   -11.21003   -6.64854   11.59444
       H   -13.58845   -4.39729    4.43749
       O   -14.37177   -3.84728    4.28547
      H1   -15.06810   -3.99915    4.99026
       H   -10.30580  -10.85974    4.64280
       O   -10.64231  -10.02421    4.32707
      H1   -10.04399   -9.71718    3.64298
       H   -14.48102  -10.49839   10.62874
       O   -13.80397  -10.34346    9.96281
      H1   -13.73174   -9.37568    9.78436
       H    -9.76737    1.07720    6.30522
       O    -9.86713    0.09640    6.29603
      H1   -10.59634   -0.16059    6.91566
       H   -12.08216   -0.46631    8.11585
       O   -12.66947    0.17396    7.77721
      H1   -12.98452   -0.27570    6.98215
       H   -15.17941   -7.38461    6.65912
       O   -14.35005   -7.69528    7.12076
      H1   -14.48252   -7.49938    8.05763
       H   -15.66549   -9.25746    2.40812
       O   -15.54323  -10.17108    2.00035
      H1   -14.57671  -10.19216    1.76280
       H   -11.09606   -7.25244    6.06638
       O   -11.79556   -6.58513    6.34400
      H1   -12.69366   -6.98702    6.42134
       H    -8.21825    0.67866    4.51569
       O    -8.10653    0.57535    3.51803
      H1    -8.86094    1.03518    3.10961
       H   -10.59864   -3.62922    1.23800
       O   -10.73313   -2.68589    1.11200
      H1   -11.39408   -2.48650    1.79954
       H   -11.85603   -6.25594    1.56596
       O   -10.99765   -5.93976    1.91905
      H1   -10.36085   -6.26293    1.28027
       H   -18.60542   -5.33390    4.53612
       O   -18.24889   -4.54549    4.16245
      H1   -17.67557   -4.70576    3.40139
       H    -7.99885   -2.90779   -1.30810
       O    -7.98252   -1.94662   -0.96856
      H1    -8.18198   -2.17816   -0.03325
       H    -6.62488   -5.95286    2.93841
       O    -7.60473   -6.00534    2.91073
      H1    -8.01598   -5.50554    3.62286
       H   -14.73643   -7.23045    2.31250
       O   -15.62926   -7.44495    2.64086
      H1   -16.19961   -7.26271    1.81665
       H   -11.39974   -5.53616    7.75217
       O   -11.24821   -5.25988    8.71940
      H1   -12.06531   -4.72357    8.83252
       H   -13.07167   -7.42795   -2.03912
       O   -13.31345   -6.54602   -1.76567
      H1   -12.88003   -5.93798   -2.43467
       H    -7.17819   -0.06609    7.20976
       O    -7.34354   -0.87239    7.73917
      H1    -8.17116   -1.24609    7.41732
       H   -16.02942  -10.17992    6.98927
       O   -15.38182  -10.40040    6.29255
      H1   -14.85844   -9.60855    6.03047
       H   -11.66220   -1.38257   10.43245
       O   -10.87695   -1.44329    9.87794
      H1   -10.48484   -0.53538    9.79146
       H    -8.17312   -5.24617   -2.19876
       O    -7.86430   -4.78045   -1.36655
      H1    -8.27392   -5.20941   -0.60994
       H    -9.30352   -7.98748    6.67218
       O    -9.48580   -7.90712    5.72815
      H1   -10.05125   -8.70483    5.47742
       H   -16.49223   -5.95342    5.77671
       O   -16.57432   -6.85184    5.57079
      H1   -16.36847   -7.02588    4.63993
       H   -16.77740   -3.16894    6.66268
       O   -16.44398   -3.88706    6.09330
      H1   -17.09447   -4.16167    5.47256
       H   -18.27573   -6.73553    5.88225
       O   -19.22716   -6.50595    5.88119
      H1   -19.67042   -7.18276    5.31033
       H   -13.48590   -6.34336    0.28804
       O   -13.48809   -6.60754    1.19710
      H1   -13.18352   -7.56158    1.19589
       H   -15.59155   -4.05410   -0.10656
       O   -14.73025   -3.72737   -0.31478
      H1   -14.47015   -3.13016    0.43740
       H   -13.53542   -3.18707    9.17435
       O   -13.66052   -3.94084    8.56090
      H1   -13.03882   -3.65109    7.83532
       H    -4.47879   -5.41665    2.26044
       O    -4.74706   -5.12144    3.15039
      H1    -5.04597   -4.23971    3.00327

