165
frame 7 | Written by MDAnalysis XYZWriter (release 2.4.3)
       H    -2.11741   -8.23969    0.28896
       O    -2.84704   -8.60457    0.80507
      H1    -3.00266   -8.11250    1.63450
       H    -4.77017   -8.08804   -1.73199
       O    -4.55762   -9.00968   -1.62880
      H1    -3.90591   -9.00423   -0.94952
       H   -10.30045  -16.90311   -4.16354
       O    -9.34882  -16.91675   -4.21085
      H1    -9.20993  -16.99778   -3.26493
       H    -7.73019   -9.68431    2.95431
       O    -8.23913   -9.88989    2.15674
      H1    -7.68371   -9.34529    1.48704
       H   -10.13617   -9.53391    2.81705
       O   -11.01376   -9.51049    3.20628
      H1   -11.45477  -10.32008    2.84082
       H   -10.77629   -7.39699   -5.34782
       O   -10.83043   -7.02658   -4.47083
      H1   -11.18609   -6.16283   -4.51558
       H    -9.14013   -6.11522   -4.40688
       O    -8.57177   -5.48700   -3.98775
      H1    -7.79486   -5.63770   -4.50861
       H   -10.68389  -15.77067   -6.97096
       O   -10.44367  -14.80431   -7.04420
      H1    -9.79080  -14.57595   -6.29220
       H    -1.83180  -14.54084   -6.03479
       O    -2.17161  -13.62451   -5.85859
      H1    -2.99868  -13.76740   -5.30729
       H   -10.49663  -14.48147    4.29080
       O   -10.34218  -13.56769    4.09371
      H1    -9.95094  -13.52059    3.21660
       H    -9.77936  -13.45659   -1.14790
       O    -9.43001  -12.55363   -1.06974
      H1   -10.14525  -11.93939   -1.17616
       H    -8.49202   -6.46404   -8.31172
       O    -8.63274   -6.46410   -7.34769
      H1    -7.82929   -6.90442   -6.94231
       H    -3.74570  -12.43859   -3.68994
       O    -4.05762  -13.35144   -3.86259
      H1    -4.72492  -13.24487   -4.52914
       H    -7.51629   -7.13716   -0.16196
       O    -7.69106   -6.20239    0.01856
      H1    -7.01622   -5.89348    0.63008
       H   -12.67571  -11.82948    4.23014
       O   -12.71790  -12.00405    3.27970
      H1   -11.88324  -12.54451    3.13351
       H   -13.24243  -14.39945    1.38778
       O   -12.80616  -13.70844    0.75170
      H1   -13.08527  -12.89875    1.20375
       H   -12.11901  -16.57590    1.91629
       O   -11.59804  -16.95612    1.22996
      H1   -11.27906  -16.24483    0.60634
       H    -7.54940  -17.33953    2.60710
       O    -6.74828  -17.06848    2.98441
      H1    -6.53158  -16.30548    2.45238
       H    -5.26644  -11.93651    1.72804
       O    -5.15118  -11.95236    2.70420
      H1    -5.58577  -12.71063    3.15089
       H    -9.87435  -10.95557   -6.48432
       O    -9.71277  -11.33278   -5.62845
      H1   -10.52439  -11.15081   -5.11527
       H    -8.68813  -15.18866   -4.51800
       O    -8.63350  -14.29711   -4.94181
      H1    -9.26245  -13.76687   -4.37849
       H    -3.75443  -14.64518   -6.97800
       O    -4.47910  -15.33503   -6.84098
      H1    -5.18224  -14.79965   -6.45926
       H    -4.81916  -14.68869    1.18374
       O    -4.39141  -14.46138    0.33183
      H1    -3.89940  -15.24487    0.19219
       H    -6.29713  -17.34703   -4.06898
       O    -6.23290  -17.07470   -3.07171
      H1    -6.25788  -16.13531   -2.99348
       H   -11.12108   -8.74408   -7.57641
       O   -10.95246   -8.05266   -6.94262
      H1   -10.11106   -7.72790   -7.24872
       H    -6.37750   -7.13569   -4.29069
       O    -6.66354   -7.22914   -5.22654
      H1    -6.78666   -8.18192   -5.34059
       H    -7.84158   -8.81270   -1.26421
       O    -7.14196   -8.83316   -0.52090
      H1    -6.27965   -8.81421   -0.90092
       H    -7.93892  -10.52094   -5.16443
       O    -7.08159  -10.22613   -4.87670
      H1    -6.92723  -10.84248   -4.14319
       H    -4.88666   -5.86607   -2.88141
       O    -5.61398   -6.45985   -2.67467
      H1    -6.26988   -5.90668   -2.21365
       H    -2.53784  -10.06634    1.95829
       O    -2.52451  -10.78216    2.55112
      H1    -3.34115  -11.27935    2.59880
       H   -12.78097   -9.73373   -4.44574
       O   -12.23528  -10.54432   -4.18619
      H1   -12.96884  -11.20068   -3.99719
       H   -10.89702   -6.54244    0.49643
       O   -10.42645   -5.70535    0.62631
      H1    -9.51816   -5.87396    0.35231
       H    -5.13116  -14.05502   -2.41447
       O    -6.02484  -14.32247   -2.04636
      H1    -5.85445  -14.64693   -1.16659
       H    -8.45981   -9.30421   -3.34301
       O    -9.07875   -8.82606   -2.78486
      H1    -9.59804   -8.21856   -3.28362
       H    -7.91116  -11.67663   -2.02855
       O    -7.04563  -11.52248   -2.49916
      H1    -6.59265  -12.30218   -2.16626
       H    -6.04082  -11.46173   -0.33104
       O    -5.19695  -11.76620    0.09557
      H1    -4.98915  -12.59217   -0.30044
       H   -15.20292  -11.88774   -4.18931
       O   -14.44825  -12.45397   -4.01326
      H1   -14.63068  -12.82092   -3.15335
       H    -1.63118  -13.51947   -0.92748
       O    -1.13185  -14.27602   -1.18862
      H1    -0.24498  -14.22880   -0.76069
       H    -7.47438  -15.63538    0.27885
       O    -6.89227  -15.17122    0.91910
      H1    -7.33924  -14.42770    1.36700
       H    -4.58788   -7.99364   -6.06798
       O    -3.74385   -8.06492   -6.51402
      H1    -3.43605   -7.09831   -6.51928
       H    -8.06981  -15.09332   -8.99689
       O    -7.85000  -14.80794   -8.04471
      H1    -8.69886  -15.03866   -7.58159
       H    -8.38668  -12.12400    2.30129
       O    -8.53430  -12.91458    1.74410
      H1    -8.80613  -12.58167    0.87862
       H   -13.67616  -12.92007   -7.05759
       O   -13.22551  -13.72333   -6.69609
      H1   -12.26207  -13.44557   -6.67943
       H   -11.24990  -14.93827   -1.52803
       O   -10.89701  -15.07584   -0.64915
      H1   -11.43422  -14.40902   -0.17857
       H    -8.62114  -17.70765   -1.19665
       O    -8.42836  -16.79223   -1.37144
      H1    -7.56602  -16.79684   -1.86215
       H    -7.10859  -13.14251   -5.55764
       O    -6.26091  -12.96768   -6.03963
      H1    -6.32597  -12.00848   -6.18181
       H    -5.92683  -10.57186    3.65056
       O    -6.14835   -9.63378    3.92226
      H1    -5.36273   -9.10132    3.69759
       H   -12.28278  -17.22315   -2.52215
       O   -12.07949  -16.69206   -3.28999
      H1   -12.41486  -17.20074   -4.03298
       H    -7.58879  -12.88578   -8.58965
       O    -7.29266  -12.06343   -9.00021
      H1    -8.00632  -11.36549   -8.81984
       H   -10.30180   -9.68264   -1.89031
       O   -11.02126  -10.16494   -1.52495
      H1   -11.58728  -10.45912   -2.25401
       H    -1.86276   -9.82311   -4.37418
       O    -1.47398   -9.46066   -5.20426
      H1    -2.27939   -9.08389   -5.62713
       H   -12.17058  -13.49230   -4.33935
       O   -11.73265  -13.87108   -3.56446
      H1   -11.89297  -14.82003   -3.75083
       H    -3.66785  -10.43717   -2.94841
       O    -2.94501  -11.00074   -3.16418
      H1    -2.59697  -11.21631   -2.23954
       H    -3.04920  -11.67523    0.24465
       O    -2.39350  -11.88512   -0.37278
      H1    -1.56202  -11.44435   -0.09960
       H   -12.71477   -7.09232   -0.87322
       O   -12.41943   -7.60539   -0.08099
      H1   -12.25837   -8.48683   -0.44866

