165
frame 1 | Written by MDAnalysis XYZWriter (release 2.4.3)
       H   -14.91242   -6.35110   10.31570
       O   -15.85989   -6.59702   10.13036
      H1   -16.19687   -5.74420    9.81287
       H    -5.15381   -8.61798    5.08785
       O    -5.66743   -7.93810    4.61438
      H1    -6.59773   -8.24086    4.82007
       H   -14.25823  -12.35939   10.35692
       O   -13.77482  -12.18705    9.54969
      H1   -14.01186  -11.27909    9.32693
       H    -7.18284   -8.13918    2.13033
       O    -8.10411   -7.83407    2.01475
      H1    -8.20166   -7.94300    1.01972
       H    -6.87338   -8.77101    9.06116
       O    -7.72501   -8.88233    9.50668
      H1    -8.10051   -9.74527    9.19904
       H    -6.80248   -5.30394    5.59838
       O    -7.77618   -5.25442    5.71983
      H1    -8.10351   -4.98426    4.87972
       H    -9.68960   -1.54531    2.34684
       O    -8.68650   -1.64795    2.28572
      H1    -8.51554   -0.91400    2.87431
       H   -14.54924   -8.07821    7.58437
       O   -15.43917   -8.22731    7.98138
      H1   -15.62183   -7.54921    8.62500
       H    -7.44021  -12.00438    5.43479
       O    -7.16587  -11.60574    4.58761
      H1    -7.86233  -11.74232    3.95435
       H    -9.51691   -7.90175    3.07864
       O   -10.08085   -8.04974    3.86603
      H1   -10.71122   -8.73393    3.51610
       H   -10.36750  -10.75896    9.61560
       O    -9.46235  -11.03423    9.34487
      H1    -9.59725  -10.94148    8.41922
       H   -12.47711   -9.93713   10.62536
       O   -11.78493  -10.58564   10.72414
      H1   -12.17041  -11.34244   10.21062
       H    -9.86178   -4.49237    2.55134
       O    -9.30411   -4.11729    3.26168
      H1    -8.93043   -3.30601    2.94032
       H    -6.58543   -5.74373   11.41115
       O    -5.94427   -6.22796   11.94254
      H1    -6.13746   -7.17669   12.08057
       H   -12.20666   -6.45569   11.16974
       O   -11.49131   -6.97404   11.59790
      H1   -11.02779   -7.43006   10.85509
       H    -9.70944  -12.31331    3.93544
       O    -9.41235  -11.81721    3.15291
      H1    -9.00778  -12.42851    2.53454
       H   -13.49485   -4.31551    9.83380
       O   -13.29818   -5.23692    9.87462
      H1   -13.42013   -5.50149    8.98676
       H    -4.80048   -9.55769    6.91253
       O    -4.33907   -9.72246    6.06768
      H1    -4.63832  -10.55893    5.64576
       H   -11.30578   -1.00917    4.50931
       O   -11.14647   -0.05409    4.46286
      H1   -10.19848   -0.00840    4.42138
       H   -10.38531   -3.26196    4.49635
       O   -11.04905   -2.83737    4.94717
      H1   -11.44561   -3.64347    5.33713
       H    -8.91956   -4.57590   12.44999
       O    -8.65914   -3.68208   12.12465
      H1    -8.25372   -3.81599   11.27979
       H    -3.56961   -5.93131    8.05496
       O    -3.46447   -6.86350    8.45773
      H1    -2.84903   -7.38391    7.91171
       H    -4.96524   -6.32950    5.00598
       O    -4.98829   -5.43324    5.27255
      H1    -4.78073   -4.95386    4.45654
       H    -8.39342   -3.27639    6.03289
       O    -8.87050   -2.62739    6.54234
      H1    -9.78540   -2.63283    6.26484
       H   -14.46597   -3.66600    3.44325
       O   -14.68345   -3.06251    2.71614
      H1   -14.37561   -3.50548    1.92304
       H   -11.59522  -10.08529    5.30174
       O   -11.87928  -10.08237    4.40405
      H1   -11.33181  -10.70661    3.91288
       H   -11.17650  -13.37484    5.73628
       O   -10.33634  -13.05961    5.39588
      H1    -9.71439  -13.76917    5.35845
       H   -10.02243  -11.46514    6.29091
       O   -10.02301  -10.57533    6.66307
      H1    -9.39659  -10.02000    6.17500
       H   -13.68872   -5.41810    5.02833
       O   -14.21735   -4.64444    5.05622
      H1   -14.01764   -4.12903    5.80468
       H    -7.64827   -9.99007    4.87129
       O    -7.94014   -9.09591    5.23784
      H1    -8.65931   -8.74972    4.71419
       H   -14.66458   -8.85486   11.08149
       O   -14.10714   -8.94392   10.33892
      H1   -14.66420   -8.76052    9.61559
       H   -11.58105   -1.32769    8.41371
       O   -12.08742   -0.49445    8.22650
      H1   -11.43307    0.19234    8.19369
       H    -9.19247   -6.21499    6.79772
       O   -10.08397   -6.56224    6.65215
      H1   -10.02426   -6.75346    5.73821
       H    -8.11568   -1.90819    9.61637
       O    -7.87695   -2.86308    9.53016
      H1    -7.05740   -3.01479    9.09972
       H    -7.46460   -8.74019   11.14443
       O    -7.22935   -8.84628   12.07361
      H1    -7.79808   -8.33128   12.61853
       H   -14.49963  -10.11197    2.47340
       O   -13.96690  -10.90912    2.21992
      H1   -13.03234  -10.62403    2.40025
       H   -11.97174   -8.20906    6.97029
       O   -12.81483   -8.21689    6.57138
      H1   -12.78236   -7.61193    5.80077
       H   -11.48101   -2.74791    1.68554
       O   -11.41404   -1.79401    1.71060
      H1   -12.31612   -1.49808    1.84917
       H    -4.62617   -8.06724    8.38292
       O    -5.35089   -8.69563    8.26131
      H1    -5.03109   -9.43508    8.82103
       H   -11.59402   -5.48093    1.23948
       O   -10.95465   -4.76810    1.28697
      H1   -10.34492   -5.03207    0.54561
       H    -5.76890   -4.59270    2.03910
       O    -4.96090   -4.26669    2.43318
      H1    -4.88788   -3.38537    2.09778
       H   -11.94659   -7.14015    3.69474
       O   -12.67137   -6.82314    4.30136
      H1   -13.50982   -7.07275    3.82539
       H    -9.61445   -5.98888   13.87944
       O    -9.18627   -6.13932   13.03537
      H1    -9.89654   -6.56297   12.52515
       H    -8.54132    0.44995    7.40804
       O    -7.87438   -0.08403    6.93938
      H1    -8.19230   -0.99529    6.99787
       H   -15.61057  -10.86248    6.70559
       O   -14.78465  -11.17104    6.37171
      H1   -14.35941  -10.37342    5.98582
       H    -5.69225   -2.80703    7.82710
       O    -5.72996   -3.70751    8.25762
      H1    -5.92486   -4.31795    7.55041
       H   -10.08139   -2.23787   11.49283
       O   -10.80559   -1.71283   11.27453
      H1   -10.47278   -0.83209   11.42822
       H    -5.52776   -9.94433    2.05369
       O    -5.35468   -9.03201    2.10298
      H1    -5.43480   -8.71976    3.01293
       H    -9.64073   -8.34954    9.15952
       O   -10.54424   -7.98262    9.12072
      H1   -10.41347   -7.41813    8.32246
       H   -15.92374   -5.11325    5.85346
       O   -16.79817   -4.89278    6.17825
      H1   -16.75119   -4.89594    7.16766
       H   -11.26320   -5.28711    7.01273
       O   -12.13859   -4.85679    7.23218
      H1   -11.89874   -4.22066    7.91492
       H   -14.24573   -1.54989    5.92391
       O   -14.23345   -2.00632    6.81084
      H1   -13.38267   -1.90768    7.24840
       H   -13.84343   -6.92034    0.82621
       O   -12.94790   -6.64156    1.01822
      H1   -12.55539   -7.20614    0.31003
       H   -10.90676   -2.71021    9.65985
       O   -10.80779   -2.89140    8.72719
      H1    -9.85321   -2.94127    8.56110
       H    -7.67171   -5.83842    1.57123
       O    -7.02689   -5.28701    1.06902
      H1    -6.31164   -5.88079    0.81752

