165
frame 4 | Written by MDAnalysis XYZWriter (release 2.4.3)
       H    -5.22590   -8.77580    6.18553
       O    -5.54600   -7.87330    6.19243
      H1    -6.18762   -7.82862    6.89925
       H    -6.80188   -8.11770   10.95912
       O    -7.69625   -8.03372   10.56266
      H1    -8.20260   -8.87547   10.63289
       H    -4.00929   -3.06578   12.82989
       O    -3.95409   -2.12347   12.60244
      H1    -3.03658   -2.08005   12.39355
       H    -8.12674   -5.49321    7.38782
       O    -8.23347   -4.52577    7.35356
      H1    -7.41110   -4.15803    7.63063
       H    -0.37398   -6.03352    5.40015
       O     0.21422   -6.65461    5.81008
      H1    -0.37649   -7.13244    6.42919
       H     0.72705  -12.02187   11.79945
       O     0.65445  -12.22260   10.87010
      H1     0.36527  -11.42537   10.34207
       H    -9.30220   -8.37557   16.95229
       O    -9.47468   -9.23270   16.48341
      H1    -9.89624   -8.88666   15.70103
       H     1.02967   -7.55774   13.65896
       O     1.62839   -7.22763   14.34274
      H1     2.49662   -7.38699   13.97661
       H    -9.94951  -10.46242   10.99427
       O    -9.06639  -10.40494   10.61238
      H1    -9.23802  -10.60272    9.70206
       H    -8.42512  -12.18361   11.34424
       O    -8.00549  -12.95376   11.68282
      H1    -7.17914  -12.52927   12.16401
       H    -4.26866   -5.15072   13.65292
       O    -5.00192   -4.91187   13.04944
      H1    -5.04559   -5.55050   12.35303
       H   -10.77242   -4.84764    8.91201
       O   -10.58895   -5.54969    9.56773
      H1    -9.85140   -6.00018    9.14783
       H    -8.08747   -4.08626   13.31612
       O    -7.51945   -3.70708   14.00733
      H1    -6.62684   -4.00721   13.68105
       H    -0.33388   -8.72332   12.31049
       O     0.22628   -8.00855   12.11002
      H1     0.92941   -8.36538   11.44292
       H    -3.91604  -10.82314    6.49768
       O    -3.68827  -10.02562    5.97266
      H1    -3.30560  -10.31588    5.16370
       H     0.77711   -3.66463    8.61286
       O     0.13185   -3.20301    9.20284
      H1    -0.18923   -2.53182    8.59755
       H    -9.41275   -4.53434   10.66691
       O    -8.83344   -4.27606   11.36793
      H1    -8.10793   -3.77361   10.95115
       H    -1.55307   -6.74080    9.85586
       O    -1.80441   -7.52896   10.31296
      H1    -1.04552   -7.79111   10.77305
       H    -5.31612   -5.96359    5.76615
       O    -4.86105   -5.09016    5.84258
      H1    -5.60993   -4.44931    5.67562
       H    -2.50591   -9.50006   13.34035
       O    -1.72451   -9.89368   12.81105
      H1    -2.17504  -10.52251   12.18312
       H    -6.62620   -8.29601   15.11847
       O    -6.84949   -7.40047   14.88318
      H1    -7.43908   -7.54291   14.10769
       H    -2.28727  -12.82684   15.45066
       O    -2.66929  -13.64199   15.08235
      H1    -3.20076  -13.46386   14.29080
       H    -1.14536   -4.20871   13.91557
       O    -2.08889   -4.49700   13.98400
      H1    -2.08366   -4.56504   14.99266
       H    -2.21804   -8.77609   16.78733
       O    -2.52550   -9.42907   17.45369
      H1    -1.99382   -9.24572   18.26796
       H    -4.52798   -8.19573   11.55467
       O    -4.94417   -7.41416   11.30448
      H1    -4.65348   -7.40366   10.39601
       H    -4.12850  -14.07473   11.95466
       O    -4.43550  -13.84987   12.87021
      H1    -5.23786  -14.42019   12.94741
       H    -1.92520   -7.21444   12.35492
       O    -2.18574   -7.01191   13.20866
      H1    -1.97752   -6.10329   13.46435
       H    -1.18689   -7.63016   14.66883
       O    -1.06943   -8.29071   15.38047
      H1    -0.87355   -9.16212   15.05423
       H    -7.42686  -10.15932    6.13518
       O    -8.29734   -9.68928    6.24850
      H1    -8.56534   -9.51534    5.34250
       H     0.66602   -9.86217    9.20117
       O    -0.24155  -10.17535    8.95728
      H1    -0.11370  -10.74695    8.24088
       H    -0.19892  -11.01036   13.79726
       O     0.68649  -11.27307   13.60356
      H1     0.99066  -11.69822   14.41226
       H    -5.34033  -12.38900   13.16263
       O    -6.07943  -11.80684   13.02963
      H1    -6.17787  -11.34509   13.87103
       H    -2.27081   -9.09206    6.45679
       O    -1.52312   -8.56389    6.79323
      H1    -1.19815   -9.02079    7.53460
       H    -5.56714   -1.07938   13.47543
       O    -6.23636   -0.78643   14.12644
      H1    -6.94791   -1.42160   14.01721
       H    -6.92464   -2.10840   10.38864
       O    -6.61439   -2.96799   10.80865
      H1    -6.19419   -2.72874   11.63021
       H    -8.20847   -7.45651   12.03602
       O    -8.73869   -7.17738   12.77522
      H1    -8.84266   -6.24702   12.70712
       H    -6.21740  -10.64577   16.47965
       O    -6.43786   -9.87604   15.93753
      H1    -7.38385   -9.69405   16.09165
       H    -3.21347   -8.71006    9.36439
       O    -3.99799   -9.28388    9.25183
      H1    -3.91439   -9.63198    8.37098
       H    -1.16757   -4.38857    9.13038
       O    -1.63337   -5.22813    9.02470
      H1    -2.55956   -5.00452    9.00228
       H    -4.72323   -8.72612   14.23643
       O    -4.07004   -8.99114   13.61416
      H1    -3.65794   -8.11808   13.42434
       H     0.82771   -4.42039   13.23873
       O     0.68658   -4.75422   14.11796
      H1     1.00146   -5.66108   14.21725
       H    -2.93962   -4.82061    5.59733
       O    -1.94492   -4.63087    5.79645
      H1    -1.81284   -5.03660    6.69586
       H    -2.23029   -4.52191   17.49068
       O    -1.78006   -4.35643   16.60875
      H1    -1.72353   -3.40222   16.49130
       H   -11.61525   -6.66565   13.54616
       O   -11.46109   -5.90273   12.98264
      H1   -12.25884   -5.31122   13.16425
       H   -10.01829   -8.25188   13.44127
       O   -10.70660   -8.69959   13.99579
      H1   -11.09513   -9.46798   13.50903
       H     0.28689   -5.59799   11.49487
       O     0.98036   -4.86162   11.35184
      H1     0.60103   -4.29995   10.63215
       H    -7.56390   -4.42459   15.98249
       O    -7.58744   -5.28123   16.43054
      H1    -7.36127   -5.94073   15.78255
       H    -5.06349   -4.31672    9.67764
       O    -4.57377   -4.84384    9.00943
      H1    -4.68638   -4.43256    8.16814
       H    -9.73752   -2.95241   11.67370
       O   -10.41191   -2.19993   11.53889
      H1    -9.95706   -1.36491   11.38517
       H    -3.83438   -8.43251   17.90345
       O    -4.30290   -7.62030   18.01670
      H1    -3.60290   -7.09055   18.41814
       H    -4.64972  -12.64252    8.92892
       O    -4.87788  -12.27368    8.03737
      H1    -4.43613  -12.83721    7.37560
       H    -7.67925  -13.46856    8.13255
       O    -7.46668  -12.53544    7.86088
      H1    -6.54090  -12.44725    8.01620
       H    -7.68548   -7.58801    8.75696
       O    -7.85580   -7.09388    7.98722
      H1    -8.04235   -7.71672    7.28299
       H    -4.51011  -11.34628   11.42487
       O    -3.53673  -11.39116   11.17215
      H1    -3.51223  -10.72051   10.48921
       H    -5.15554   -6.33187   15.04561
       O    -4.28590   -6.25799   15.52587
      H1    -4.35341   -6.75128   16.33654

