165
frame 0 | Written by MDAnalysis XYZWriter (release 2.4.3)
       H   -10.78352  -16.02988   -7.10330
       O   -10.37781  -15.70651   -7.90041
      H1   -10.03279  -16.51610   -8.32587
       H    -9.49369  -18.97306   -7.33927
       O    -9.47133  -19.07114   -6.41392
      H1   -10.34799  -18.89963   -6.04145
       H    -1.44407  -15.59197   -9.50814
       O    -2.12712  -15.36748   -8.83713
      H1    -2.56701  -14.64273   -9.31407
       H    -9.92012  -16.05290   -3.06312
       O    -9.60970  -15.58645   -3.84832
      H1    -8.90070  -16.17044   -4.20607
       H    -8.32337  -18.80393    1.07948
       O    -8.76828  -19.12864    0.28792
      H1    -9.65102  -19.30556    0.64972
       H    -1.48477  -18.58577   -7.23125
       O    -0.93312  -19.33831   -7.61807
      H1    -1.49718  -20.06022   -7.38934
       H   -12.14074  -18.29484   -5.12734
       O   -11.51647  -18.97353   -4.80937
      H1   -12.03276  -19.79228   -4.83177
       H   -10.29707  -14.82553  -12.53074
       O   -10.12171  -14.49789  -11.60649
      H1    -9.85828  -13.56558  -11.75780
       H    -3.69625  -16.98675   -3.48896
       O    -2.80342  -16.67462   -3.72808
      H1    -2.57688  -17.05540   -4.62237
       H   -13.24358  -17.49583   -9.66773
       O   -13.87211  -17.19930   -9.02188
      H1   -13.63814  -16.29078   -8.83720
       H    -6.72061  -17.34824  -11.15217
       O    -6.01362  -17.47616  -11.85194
      H1    -6.32221  -17.04566  -12.71024
       H    -9.80078  -10.46626   -9.68108
       O    -9.10853  -10.68112   -9.06155
      H1    -9.51107  -11.17330   -8.27638
       H    -9.87110  -14.09649   -7.46125
       O    -9.35316  -13.29489   -7.28289
      H1    -8.64563  -13.65924   -6.70568
       H    -2.59896  -14.61070   -4.39263
       O    -2.75414  -13.71818   -4.14157
      H1    -2.84618  -13.06371   -4.90059
       H    -8.33660  -18.08296   -5.49455
       O    -7.70287  -17.34415   -5.27395
      H1    -7.40269  -17.03925   -6.16995
       H    -6.71281  -14.96759   -7.00654
       O    -6.57008  -15.88196   -7.40108
      H1    -6.96605  -15.90638   -8.28490
       H    -3.02199  -10.93598   -4.91042
       O    -2.96958  -11.57160   -5.62385
      H1    -2.21054  -11.38451   -6.14935
       H    -9.44886  -18.44099   -1.36062
       O    -9.51351  -18.43297   -2.33442
      H1   -10.39163  -18.19418   -2.57750
       H   -10.20091  -18.10104   -9.91229
       O    -9.62382  -17.96580   -9.15412
      H1    -8.72731  -18.27913   -9.33748
       H    -6.46664  -19.09642   -9.03641
       O    -7.19803  -19.10866   -9.65264
      H1    -6.86140  -19.71645  -10.39302
       H    -7.04323  -17.19162    2.52156
       O    -6.41909  -16.56742    2.18223
      H1    -6.75049  -16.11789    1.39422
       H    -9.48549  -13.59056   -2.94520
       O    -9.32060  -13.17394   -2.06831
      H1   -10.17813  -13.17688   -1.52256
       H    -6.26111  -12.97495   -6.21770
       O    -7.03893  -13.43598   -5.84689
      H1    -7.06494  -13.46302   -4.87299
       H    -4.92004  -13.96211   -0.59426
       O    -4.61885  -13.51549   -1.37134
      H1    -3.69594  -13.67564   -1.33787
       H    -4.19597  -13.43330  -10.41892
       O    -3.62515  -13.07050   -9.69917
      H1    -4.10376  -12.96618   -8.89361
       H    -5.62329  -17.89198   -2.83449
       O    -5.38115  -17.85944   -3.79462
      H1    -6.15769  -17.49432   -4.20722
       H    -8.88988  -12.35468   -5.51289
       O    -9.25189  -11.80184   -4.81527
      H1    -8.49381  -11.63607   -4.27129
       H    -4.41973  -20.11417    0.55711
       O    -3.88488  -20.05265    1.38831
      H1    -4.08235  -19.18892    1.78758
       H    -1.75752  -14.33300   -2.37364
       O    -1.47185  -14.28540   -1.45107
      H1    -0.51468  -14.47388   -1.53228
       H    -2.97850  -17.14512   -6.87035
       O    -2.08457  -17.26019   -6.35644
      H1    -1.65922  -16.37388   -6.49574
       H   -11.74080  -11.88384  -11.29198
       O   -11.58319  -12.04929  -10.32017
      H1   -11.40373  -12.99179  -10.17499
       H    -4.34422  -11.68072   -6.84543
       O    -5.09064  -12.17429   -7.36693
      H1    -5.56372  -11.44694   -7.72576
       H    -7.44866  -13.68820   -2.44683
       O    -6.89120  -14.04159   -3.10375
      H1    -6.03382  -14.10528   -2.71299
       H    -8.36778  -11.63167   -2.19891
       O    -7.81789  -10.97238   -2.66281
      H1    -7.07901  -10.86190   -2.08273
       H   -14.62309  -18.92965   -7.86835
       O   -15.36758  -19.42999   -7.73593
      H1   -15.65042  -19.29818   -6.77817
       H    -4.33309  -10.33414   -1.36988
       O    -4.86009  -10.84759   -0.73585
      H1    -4.71056  -11.75731   -1.04272
       H    -7.06297  -15.36290   -0.67650
       O    -6.77575  -14.89034    0.12162
      H1    -7.46926  -14.25217    0.23567
       H    -1.18672  -17.53852   -2.72048
       O    -0.52719  -18.17280   -2.41128
      H1    -1.01501  -18.67439   -1.67261
       H   -11.71542  -18.93314  -11.70227
       O   -11.53261  -18.02520  -11.38390
      H1   -12.18308  -17.53336  -11.89988
       H    -6.85290  -15.15149  -10.59567
       O    -7.54712  -15.30476   -9.93449
      H1    -8.38281  -15.08252  -10.41519
       H    -7.77603  -12.27474    0.98333
       O    -8.41518  -13.00070    1.04387
      H1    -9.11651  -12.80611    0.42337
       H   -10.80194  -12.27423   -3.85186
       O   -11.77160  -12.13140   -3.91480
      H1   -11.80203  -11.33885   -4.43620
       H   -12.57799  -15.03208   -5.54530
       O   -11.83352  -15.73843   -5.48862
      H1   -11.16427  -15.40112   -4.85837
       H   -15.26085  -18.50583   -4.46949
       O   -14.68408  -17.90202   -4.94449
      H1   -15.33664  -17.16535   -5.27789
       H    -7.97205  -17.17638   -2.41714
       O    -7.29831  -16.50833   -2.09148
      H1    -7.35366  -15.77950   -2.75195
       H    -7.43104   -9.10098   -7.15558
       O    -7.06069   -9.97233   -7.24330
      H1    -7.64375  -10.38534   -7.89406
       H   -12.39769  -17.27688   -2.10537
       O   -12.07197  -16.59666   -2.73602
      H1   -12.46193  -16.83458   -3.60961
       H    -3.51263  -16.64461   -8.49929
       O    -4.21321  -17.17653   -7.99313
      H1    -4.96007  -16.59018   -7.70052
       H   -10.53666  -10.71742   -5.65254
       O   -11.26641  -10.19747   -6.04393
      H1   -11.55494  -10.72827   -6.78626
       H    -7.32232  -13.01399   -9.83426
       O    -7.24414  -12.13615  -10.16105
      H1    -7.99556  -11.63186   -9.78944
       H   -11.95996  -14.99630   -8.40405
       O   -12.80221  -14.52483   -8.48239
      H1   -13.13548  -14.37562   -7.62076
       H   -12.93884  -13.33269   -2.79222
       O   -13.45946  -13.96491   -2.32518
      H1   -12.96206  -14.77776   -2.41053
       H   -12.80932  -18.27564   -0.07679
       O   -13.43205  -18.22589   -0.79879
      H1   -13.96240  -17.42827   -0.72505
       H    -4.12761  -19.00243   -8.36904
       O    -4.43957  -19.92274   -8.30438
      H1    -4.53818  -19.96856   -7.33406
       H   -14.13531  -12.95300   -5.49573
       O   -13.35894  -13.55517   -5.69809
      H1   -12.59400  -13.12492   -5.22527

