165
frame 2 | Written by MDAnalysis XYZWriter (release 2.4.3)
       H    -5.73883  -17.57945   11.24295
       O    -5.75934  -16.88867   10.61775
      H1    -5.78536  -17.23177    9.73678
       H    -5.96342  -18.08332   13.29599
       O    -5.44412  -18.77041   12.89845
      H1    -4.52792  -18.64892   13.06609
       H    -4.46680  -15.60968   15.02750
       O    -4.35154  -16.28132   14.38311
      H1    -4.49047  -15.90762   13.51311
       H     0.22578  -12.65105    5.28582
       O    -0.06074  -11.79044    5.54197
      H1     0.73829  -11.32872    5.87549
       H     0.66999  -12.26809   11.58412
       O     0.29534  -12.89874   10.93764
      H1     0.13761  -12.39508   10.11907
       H     5.29987  -13.51860   11.68208
       O     5.75331  -14.33794   11.92512
      H1     6.42199  -14.45923   11.21527
       H    -1.21822  -16.49078   14.79303
       O    -1.85164  -17.20667   14.59471
      H1    -2.73628  -16.82030   14.45512
       H    -0.89470   -9.93874   11.18800
       O    -0.48566   -9.08184   11.00874
      H1     0.40360   -9.40234   10.74669
       H    -0.05781  -14.22919    4.26660
       O     0.60543  -14.27692    4.94572
      H1     1.50555  -14.31065    4.62385
       H    -1.67904  -15.52529   17.54762
       O    -2.46321  -15.85759   17.19728
      H1    -2.20224  -16.26935   16.38836
       H     4.41068  -11.90712    8.35816
       O     3.76592  -12.46784    7.90304
      H1     4.39085  -13.14466    7.40937
       H    -3.44324  -10.60299   11.81041
       O    -2.74279  -11.09734   11.33846
      H1    -3.28818  -11.64726   10.69132
       H     5.96262  -17.36098    9.86250
       O     6.85550  -17.15300   10.12203
      H1     6.88289  -17.42277   11.06930
       H    -3.99227  -16.47100    5.55986
       O    -3.02950  -16.31861    5.51847
      H1    -2.64255  -17.14798    5.09542
       H    -2.52559  -12.14889   12.69178
       O    -2.47622  -12.92495   13.28992
      H1    -3.34399  -13.30256   13.25582
       H    -4.07485  -12.55957   15.77665
       O    -3.60854  -11.71299   15.67275
      H1    -3.11148  -11.84615   14.88167
       H    -4.35826  -15.89608    9.95618
       O    -3.84705  -15.02274    9.99023
      H1    -2.87307  -15.17392   10.02929
       H     4.16016  -17.40004    7.77703
       O     4.47540  -17.22438    8.68166
      H1     3.70908  -16.79099    9.11863
       H     0.08701  -11.73078   15.46361
       O    -0.34421  -11.37299   14.69902
      H1    -0.97488  -12.01470   14.39833
       H     0.27528  -18.30142    7.98063
       O     0.15069  -17.62998    8.62769
      H1     1.02261  -17.39728    8.93642
       H    -4.75821  -14.29835   11.54177
       O    -4.92980  -14.00412   12.45770
      H1    -5.93749  -14.16115   12.48821
       H     4.28648  -10.76996   14.77701
       O     4.42922  -10.45128   13.84893
      H1     3.55245  -10.70029   13.54162
       H    -2.86006  -18.10459    3.45196
       O    -2.42597  -18.65790    4.15478
      H1    -1.48115  -18.62237    3.98637
       H    -6.73510  -18.48674    7.49707
       O    -6.07869  -17.91934    7.87641
      H1    -5.24344  -18.50819    7.81404
       H    -3.31477  -19.22551    8.89401
       O    -3.42099  -18.27167    8.85219
      H1    -2.54757  -17.94320    8.51970
       H     0.81380  -11.16215    8.45248
       O    -0.08178  -11.35315    8.54029
      H1    -0.38397  -11.70006    7.67058
       H     1.14022  -11.42444   13.73017
       O     1.94522  -11.47419   13.17179
      H1     2.29397  -12.33582   13.48225
       H     4.20192  -17.51151    5.32523
       O     3.63587  -18.05298    5.89083
      H1     2.83904  -17.50504    5.85020
       H    -1.92892   -9.46015    6.82558
       O    -1.31933   -8.88532    7.24413
      H1    -0.72829   -9.38026    7.80724
       H    -3.01346  -14.55945    5.39119
       O    -3.12557  -13.62340    5.28429
      H1    -3.79823  -13.57588    4.59013
       H     2.06041  -19.31511   12.12241
       O     2.90373  -18.83747   11.88854
      H1     3.33325  -19.39051   11.18860
       H    -0.87390  -13.85049   13.15614
       O    -0.33907  -14.65041   13.25170
      H1    -0.51390  -15.23240   12.53065
       H     2.04403  -10.25579   11.13149
       O     1.90224   -9.97912   10.21032
      H1     2.57013   -9.29100    9.97103
       H    -1.14478  -19.00716   11.33277
       O    -0.24970  -19.08530   10.97599
      H1    -0.20251  -18.41010   10.21816
       H     0.49943  -16.56384    6.85462
       O     0.72894  -16.70197    5.94497
      H1     0.76454  -15.83024    5.55144
       H     4.67093  -11.62065   10.58821
       O     4.22060  -12.17365   11.23513
      H1     3.64781  -12.75397   10.67747
       H     2.75631  -15.05281   13.46258
       O     2.33811  -14.32013   13.97056
      H1     1.39460  -14.28096   13.64320
       H     2.53585  -11.03026    7.20486
       O     1.87372  -10.33478    7.00894
      H1     2.44152   -9.54495    6.83246
       H     1.97358  -17.17843   16.19318
       O     1.94847  -16.23551   16.08161
      H1     2.32722  -16.02449   15.21944
       H     2.58630  -15.53589   10.27210
       O     2.38844  -16.49356   10.16020
      H1     2.38036  -17.03859   10.94699
       H     5.63654  -13.01632   13.97961
       O     5.30634  -13.38312   14.79861
      H1     4.40708  -13.10253   14.92205
       H     3.44562  -13.78718    4.61206
       O     3.22810  -14.72750    4.60143
      H1     3.09782  -14.86014    3.61452
       H     0.35250  -17.90953    4.68989
       O     0.27674  -18.60658    4.08811
      H1     0.83389  -18.41228    3.34902
       H     6.89608  -14.38260    9.35013
       O     7.57596  -14.58320   10.09803
      H1     7.53929  -15.52888   10.17297
       H    -1.50817  -12.81862    3.00351
       O    -1.31283  -13.68592    3.30531
      H1    -1.82022  -13.60473    4.14269
       H     5.56676  -17.64968   14.38786
       O     6.16976  -16.92176   14.43524
      H1     5.67039  -16.13870   14.27739
       H    -4.36085  -14.04177    8.58336
       O    -4.79194  -13.53378    7.87648
      H1    -4.14835  -13.56299    7.14800
       H    -2.04098  -18.71494   13.16361
       O    -2.62563  -19.14578   12.53080
      H1    -2.61845  -20.08449   12.73258
       H    -0.39918  -19.82332   14.96775
       O    -1.04499  -19.96722   15.67253
      H1    -1.72880  -19.25875   15.71079
       H    -5.70335  -12.15449   10.66340
       O    -5.14968  -11.92439    9.93044
      H1    -5.31777  -12.58177    9.29503
       H     1.74588  -13.42368   10.28963
       O     2.58412  -13.85761    9.92172
      H1     2.98777  -13.37221    9.16427
       H     4.47914  -15.93219   12.27095
       O     3.87302  -16.42771   12.87915
      H1     3.78893  -17.34693   12.54505
       H    -0.01572  -15.91049   10.47069
       O    -0.82451  -15.53950   10.82672
      H1    -0.78186  -14.58858   10.83918
       H     1.58850  -13.39764   15.75777
       O     1.34048  -12.58619   16.24086
      H1     2.10528  -12.04355   16.29628
       H     6.51030  -14.02770    7.40191
       O     5.90099  -14.12903    8.17210
      H1     5.57928  -15.04691    8.20334

