165
frame 2 | Written by MDAnalysis XYZWriter (release 2.4.3)
       H     1.26357   10.23668   -2.06300
       O     1.70408    9.37291   -2.22049
      H1     2.29088    9.32153   -1.48350
       H    -1.83378    5.34218    0.62231
       O    -1.64328    4.57221    0.07844
      H1    -1.51563    3.79513    0.61037
       H     0.98800    4.24092    3.22869
       O     0.96290    5.14567    3.49591
      H1     1.05773    5.74011    2.71278
       H     2.20365    8.53652   -4.00894
       O     1.88801    8.15372   -4.82170
      H1     1.13095    8.69858   -5.06709
       H     0.24051    6.75365    5.81787
       O    -0.07151    6.24108    6.61197
      H1     0.69500    6.25898    7.20413
       H     4.27298    5.50188    1.22452
       O     4.45230    4.61800    1.06714
      H1     3.65033    4.10643    1.06174
       H     6.53351   10.34551    2.71839
       O     7.11504    9.69358    2.20376
      H1     6.49783    9.50378    1.46673
       H    -3.54753    9.60931    0.29694
       O    -3.83725    8.69815    0.12183
      H1    -4.01607    8.70549   -0.83511
       H     1.80414    2.78283    1.34533
       O     2.47785    2.91921    0.67792
      H1     2.98448    2.08061    0.64835
       H     4.48532    6.46203   -5.15480
       O     4.52490    6.95470   -6.00517
      H1     3.57925    6.91047   -6.18321
       H     3.67638    5.37379    5.20022
       O     3.04086    6.02431    4.82893
      H1     2.31429    5.52743    4.39723
       H     0.55632   12.79837   -1.09560
       O     1.11222   12.07726   -1.47133
      H1     1.94346   12.50419   -1.68220
       H    -3.61378    6.99946    1.04822
       O    -3.53505    6.17082    1.53867
      H1    -2.94015    6.34782    2.30127
       H     6.42569    5.17574    4.80497
       O     5.88510    4.62938    5.39357
      H1     6.00767    5.08534    6.29897
       H     8.26072    9.14282   -1.73823
       O     7.46826    9.22681   -2.27318
      H1     7.64576    9.68908   -3.18059
       H     0.63414    7.51306    1.63701
       O     1.48692    7.19066    1.84926
      H1     1.95058    7.93073    2.30104
       H     5.35168    3.20165    0.78749
       O     5.77366    2.56018    0.21609
      H1     5.38253    2.81744   -0.65841
       H    -0.39056    6.15005   -2.22479
       O    -0.35802    5.19379   -2.06773
      H1    -0.71494    4.96122   -1.22698
       H     3.36284    5.13612   -3.72047
       O     3.45906    4.81741   -4.68635
      H1     2.53528    4.96566   -5.01015
       H     8.76995    9.45373    0.95353
       O     9.06439    9.47732    0.03593
      H1     8.73798   10.30381   -0.24816
       H     0.17589    5.59982   -6.05140
       O     1.05965    5.71403   -5.63898
      H1     0.89807    6.61075   -5.39044
       H     1.37515    4.40446   -2.01492
       O     2.06662    3.76216   -1.90430
      H1     1.98591    3.59327   -0.95698
       H    -2.41114   11.02560   -2.13221
       O    -1.85905   10.47626   -2.68567
      H1    -2.50781   10.27592   -3.35409
       H     2.67945    7.28120    0.08218
       O     3.17047    7.96264   -0.43961
      H1     3.28454    7.53093   -1.29292
       H     8.24201    6.85911    4.38957
       O     7.45710    6.53687    3.88903
      H1     7.77950    6.69249    2.98789
       H     4.91101    8.43057   -0.16477
       O     5.78752    8.77732   -0.12576
      H1     5.92770    9.21679   -0.97727
       H    -0.86723    5.67062    3.85066
       O    -1.79252    5.96232    3.90954
      H1    -2.25123    5.18855    4.29871
       H     7.30936    7.37370    0.42894
       O     7.80465    6.74272    0.94616
      H1     7.77756    5.99037    0.37874
       H     2.67752   12.11240   -5.06146
       O     3.27646   11.42744   -4.72893
      H1     2.67578   10.94147   -4.16745
       H     3.72315    8.54719    2.55532
       O     3.08527    9.22416    2.90431
      H1     2.81144    9.69699    2.11308
       H    -1.92557    7.99233    3.96241
       O    -2.06281    8.89818    3.63562
      H1    -2.98212    8.87325    3.22663
       H     1.70116    2.10980   -2.55963
       O     1.14002    1.33590   -2.83266
      H1     1.69347    0.88923   -3.47653
       H     4.80524   11.79248    3.05839
       O     5.01888   11.11837    3.73992
      H1     4.32071   10.45948    3.72031
       H    -2.87951   11.62289    1.93916
       O    -2.31985   11.18548    1.25378
      H1    -1.90869   11.97780    0.87909
       H     4.84120    6.92123   -2.36677
       O     3.91457    7.01754   -2.68013
      H1     4.10307    7.70202   -3.29795
       H    -1.55220    8.60851    1.19566
       O    -1.16746    7.74068    0.95021
      H1    -0.93871    7.88907    0.02289
       H     1.60324   11.50574    2.04293
       O     2.03356   11.27812    1.23733
      H1     1.43213   11.49941    0.47966
       H     4.82560    8.43282   -5.18685
       O     4.95035    9.15809   -4.58840
      H1     4.36815    9.88201   -4.85555
       H     3.92261    3.90311   -1.88798
       O     4.87745    3.98011   -2.01654
      H1     5.19116    4.68738   -1.51598
       H     7.34431    6.07129   -2.78181
       O     6.65376    6.58588   -2.41642
      H1     7.09968    7.42463   -2.41640
       H     0.38676   12.37133    3.97204
       O     1.20548   12.86414    3.78616
      H1     1.02266   13.64455    3.22316
       H    -0.75460    1.58855    0.66241
       O    -1.11675    2.12885    1.38089
      H1    -1.87665    1.55029    1.69321
       H     2.29271    9.23381    4.79035
       O     2.02913    8.62684    5.48128
      H1     2.36031    7.74292    5.25988
       H     7.27090   12.59048    1.40304
       O     6.83025   12.37721    0.60214
      H1     7.34811   12.84275   -0.00886
       H     0.11070   12.64320   -4.25947
       O    -0.47595   11.94609   -4.47651
      H1    -0.73907   11.54305   -3.66155
       H     0.18908    2.22208    2.55724
       O     1.05688    2.50184    2.88792
      H1     1.25296    1.91469    3.67222
       H     3.56333   14.22933   -1.56079
       O     3.39854   13.54167   -2.22854
      H1     4.16587   12.95629   -2.24789
       H     3.12399    1.77814    5.81587
       O     2.84808    1.92901    4.91448
      H1     3.43336    2.63497    4.64288
       H     4.64510    1.15730    0.32029
       O     3.81322    0.74990   -0.02390
      H1     3.37024    0.17595    0.61847
       H     4.75705    6.82859    3.38755
       O     4.84296    7.22159    2.52158
      H1     5.79752    7.47303    2.39000
       H    -1.45391    3.19283   -4.08924
       O    -1.88090    3.99551   -3.84454
      H1    -1.39054    4.48591   -3.15593
       H     0.26204    8.56798   -2.12343
       O    -0.50421    8.01623   -1.97868
      H1    -1.24660    8.55848   -2.15348
       H     7.30066    3.57577   -0.25610
       O     7.92744    4.30776   -0.26610
      H1     8.78753    3.94438    0.02893
       H     9.57226    5.17622   -2.57651
       O     8.85572    4.64888   -3.00261
      H1     8.21145    4.70678   -2.31097
       H     5.19282   12.71657    1.07288
       O     4.33944   12.86521    1.53106
      H1     3.61898   12.30669    1.20844

