165
frame 11 | Written by MDAnalysis XYZWriter (release 2.4.3)
       H    -5.46360  -16.48100   11.50023
       O    -4.97400  -16.51625   10.66126
      H1    -4.90903  -17.46138   10.39843
       H    -2.49994  -17.07145   16.12812
       O    -2.63568  -17.64769   15.34126
      H1    -2.55027  -18.59181   15.67043
       H    -5.32221  -16.95393   13.34800
       O    -5.64200  -16.07988   13.40485
      H1    -4.88984  -15.48466   13.38461
       H    -0.07087  -17.12007    2.70943
       O     0.75396  -17.57527    2.86611
      H1     1.47946  -16.92585    2.77144
       H     1.37721  -13.97143    7.52898
       O     1.96983  -13.60910    8.19266
      H1     2.41280  -12.82236    7.79852
       H     1.05380  -11.39450   10.30557
       O     0.84670  -12.26025   10.72991
      H1     0.57347  -12.88830   10.04293
       H    -5.50864  -16.50673    6.36820
       O    -5.91015  -17.20487    5.86951
      H1    -5.50285  -17.15480    4.97478
       H     4.28998  -13.88132   11.28667
       O     4.86451  -14.64191   11.33635
      H1     4.64033  -15.12254   10.54707
       H    -5.18763  -19.21203   13.89924
       O    -5.26604  -18.84830   12.99360
      H1    -6.14330  -19.19241   12.61610
       H    -8.06663  -16.30771    7.04053
       O    -9.00207  -16.67530    6.97990
      H1    -9.38856  -16.17175    7.69296
       H    -1.01802  -13.08724    4.71693
       O    -0.57414  -12.45427    5.26185
      H1     0.26736  -12.16432    4.97254
       H    -1.32170  -15.95755   18.20404
       O    -1.97444  -15.89447   17.51352
      H1    -2.83127  -15.64282   17.97231
       H    -1.87694  -15.51915    9.14814
       O    -1.86870  -14.73624    8.57511
      H1    -2.54729  -14.54416    7.87029
       H    -1.17102  -11.45212   13.70244
       O    -1.07835  -10.55530   13.95199
      H1    -0.37030  -10.54935   14.62134
       H    -4.12964  -13.16421   12.24060
       O    -4.07410  -14.14746   12.37825
      H1    -3.93877  -14.40975   11.44280
       H     2.24413  -19.45253    9.46587
       O     2.80435  -18.82552    9.92171
      H1     3.64024  -19.29496    9.97073
       H    -1.27644  -17.64226    8.94571
       O    -1.59902  -17.30605    9.78910
      H1    -1.24549  -17.73398   10.55103
       H    -7.87863  -16.42213   16.12041
       O    -7.92782  -16.73632   15.17277
      H1    -6.99475  -16.75822   14.87931
       H    -1.99814  -11.99507   10.27589
       O    -1.70735  -11.76823   11.14868
      H1    -0.79859  -12.08994   11.19589
       H    -8.58645  -16.58784   10.79726
       O    -9.08591  -17.38881   10.82098
      H1    -8.88467  -17.91310   10.05447
       H     5.24323  -19.63812   15.70814
       O     5.21012  -19.91001   14.78351
      H1     5.08928  -19.09290   14.28683
       H    -5.40957  -18.42245   17.44800
       O    -5.28449  -18.95801   18.24063
      H1    -4.55864  -18.58130   18.77466
       H    -2.47607  -17.44088    4.55209
       O    -2.80624  -18.08017    5.13853
      H1    -2.15803  -18.10668    5.85837
       H    -3.93324  -18.89951    8.82505
       O    -3.88111  -18.91609    9.78892
      H1    -3.07683  -18.40907    9.97369
       H    -0.56630  -10.21534    7.37317
       O    -1.23976  -10.93194    7.38919
      H1    -0.95334  -11.55261    6.65900
       H     0.56068  -16.60877   19.38368
       O     0.75332  -16.13665   18.59138
      H1     1.26784  -16.65285   17.94810
       H    -3.69100  -11.19712   12.62272
       O    -4.62023  -11.01722   12.85946
      H1    -4.62764  -10.69180   13.83252
       H     3.54208  -18.14230    7.26350
       O     2.95733  -18.75261    6.75112
      H1     2.30325  -18.14535    6.31852
       H    -3.67241  -12.95075    7.16649
       O    -3.69996  -13.85153    6.74415
      H1    -4.36254  -14.33819    7.21590
       H     2.64745  -17.36621   11.31091
       O     2.58559  -16.70409   11.97626
      H1     2.74864  -15.84473   11.54286
       H    -9.14968  -19.44189    8.64336
       O    -8.42817  -18.78511    8.60301
      H1    -8.71469  -18.17944    7.88557
       H    -1.19914  -13.74735   14.25813
       O    -2.06319  -13.35200   14.09914
      H1    -2.51609  -13.73069   13.33941
       H    -2.46216  -16.52998    2.23865
       O    -1.82449  -16.55904    2.92438
      H1    -1.93754  -15.74747    3.46659
       H    -0.66455  -18.79877   12.85605
       O    -1.22370  -18.02555   12.54603
      H1    -1.77337  -17.83879   13.31325
       H    -0.50112  -14.76455    7.37447
       O     0.16497  -14.68031    6.66958
      H1    -0.10340  -13.83137    6.24387
       H    -9.17173  -14.39485   10.92668
       O    -8.27984  -14.67570   11.00887
      H1    -7.98259  -14.33151   11.83068
       H     1.39632  -13.86896   14.07173
       O     0.74903  -13.88116   14.76927
      H1     0.68429  -14.85632   14.97000
       H    -0.31908  -17.89769    6.86297
       O    -1.08503  -18.13066    7.37325
      H1    -0.99050  -19.04741    7.59897
       H     2.64092  -17.66660   17.02561
       O     2.35203  -16.86526   16.62193
      H1     1.72429  -17.09274   15.93018
       H     3.00181  -16.73211    8.82550
       O     3.51359  -15.92081    8.85003
      H1     2.88515  -15.28316    8.50393
       H    -7.05588  -19.86369   10.89840
       O    -7.44843  -19.46389   11.74171
      H1    -8.08862  -18.82751   11.32261
       H     4.22058  -13.04994   13.86086
       O     3.80391  -13.92404   13.71623
      H1     4.30413  -14.38411   13.05211
       H    -6.00073  -14.42696    8.40206
       O    -5.73431  -15.28900    8.10811
      H1    -5.47772  -15.62890    8.96695
       H     0.39878  -16.31181    5.96943
       O     0.68992  -17.23649    5.71761
      H1     0.60098  -17.42446    4.71417
       H    -2.66450  -13.94775    3.59797
       O    -2.22956  -14.35018    4.41419
      H1    -2.90864  -14.16043    5.12784
       H     3.79537  -15.87478   16.12561
       O     4.58095  -15.69575   15.62865
      H1     4.38906  -14.96551   15.01971
       H    -5.35925  -16.50445   16.83963
       O    -5.31020  -17.26822   16.20404
      H1    -4.37927  -17.28804   15.90674
       H    -5.45483  -12.31825    9.00363
       O    -6.35834  -12.62485    8.83642
      H1    -6.50726  -12.39414    7.89688
       H    -4.61968  -18.74245    6.58758
       O    -4.56173  -19.45258    7.24953
      H1    -3.85341  -20.04532    6.90325
       H     0.35363  -16.75130   13.85748
       O     0.25154  -16.77214   14.82338
      H1    -0.67804  -16.91805   14.89425
       H    -2.82154  -11.35967    8.37011
       O    -3.73231  -11.62013    8.42433
      H1    -4.20496  -10.92576    8.01604
       H     2.79241  -12.20055   10.84685
       O     3.74098  -12.12315   10.90816
      H1     4.00957  -12.21559    9.99693
       H     4.59290  -16.84267   14.40977
       O     4.97907  -17.44025   13.67429
      H1     4.20527  -17.47738   13.14494
       H    -2.06059  -12.91341   15.80644
       O    -2.30939  -12.46469   16.62863
      H1    -1.86827  -12.84540   17.38189
       H     1.72887  -13.09812   16.21367
       O     1.95079  -12.62942   17.01037
      H1     2.81401  -12.20203   16.84624

