165
frame 6 | Written by MDAnalysis XYZWriter (release 2.4.3)
       H   -14.81776   12.92496    2.23778
       O   -15.51124   13.63410    2.33399
      H1   -15.12470   14.43818    1.95442
       H   -11.01240    9.92487    3.45334
       O   -11.94393   10.11224    3.50784
      H1   -12.06028   10.91338    2.94716
       H   -16.92150   12.99221    1.63565
       O   -17.67909   12.64350    1.16931
      H1   -17.49595   12.88980    0.20710
       H   -13.04992   17.89340   -0.19694
       O   -13.74015   18.40760    0.30134
      H1   -13.52690   19.33300    0.05881
       H   -11.18599   17.11905   -1.67899
       O   -11.68397   16.95015   -0.84440
      H1   -11.20431   16.24550   -0.42441
       H   -10.51911    7.00083   -3.98152
       O    -9.64642    7.01624   -4.25208
      H1    -9.20867    7.14712   -3.46787
       H   -16.91429   12.95424   -4.31691
       O   -17.71500   12.86043   -3.78405
      H1   -17.86965   11.94185   -3.71188
       H   -13.05782   14.00837  -10.35709
       O   -13.32951   13.70830   -9.44040
      H1   -14.11977   13.14534   -9.55363
       H    -6.68295    9.48777   -6.74736
       O    -7.04883    8.97474   -6.00050
      H1    -7.44800    8.20680   -6.43813
       H    -9.70664   10.56547   -9.00769
       O    -9.54636    9.60978   -8.91705
      H1    -9.70161    9.31917   -7.98187
       H   -12.08597    9.99721   -0.29081
       O   -11.26768    9.54960   -0.50037
      H1   -10.99074    9.09468    0.31387
       H   -11.84463   20.03288   -4.97813
       O   -11.10908   19.56420   -4.62133
      H1   -11.23336   18.66342   -4.32268
       H   -14.41606    8.21530   -1.63784
       O   -13.69432    7.54707   -1.61046
      H1   -13.04536    7.71205   -0.92253
       H   -13.15928   16.10932   -1.70625
       O   -13.97897   15.60060   -1.59427
      H1   -14.52259   15.64511   -2.38400
       H    -7.88779   12.27026   -4.26355
       O    -7.78186   13.19684   -4.29961
      H1    -7.78134   13.41165   -5.22479
       H    -8.25356    9.52774    0.50526
       O    -8.53610   10.14106   -0.19400
      H1    -9.45976   10.05723   -0.22234
       H   -12.98535   13.19641   -4.94270
       O   -13.18885   13.80610   -5.66219
      H1   -12.35073   13.83364   -6.19252
       H   -11.52390   10.21432   -4.79570
       O   -12.30489    9.86363   -5.30282
      H1   -12.84181   10.66391   -5.33291
       H   -11.27332    9.93850   -9.51600
       O   -12.08542    9.63502   -9.92047
      H1   -12.38560   10.45789  -10.42761
       H   -10.66085   16.22900   -3.58255
       O   -10.75136   17.18913   -3.35251
      H1    -9.90949   17.47805   -3.01719
       H   -15.89469   16.94144   -3.74511
       O   -15.85222   15.96801   -3.52629
      H1   -16.77471   15.75599   -3.27996
       H   -14.50428   15.82849    0.87768
       O   -15.34981   15.94540    1.26837
      H1   -16.02377   15.86413    0.52929
       H   -12.73963   12.91706    1.52266
       O   -13.00256   12.10274    2.02261
      H1   -13.45314   11.46301    1.45234
       H   -14.90774   12.76338   -1.83727
       O   -14.01255   12.36079   -1.71573
      H1   -13.51092   12.93097   -1.07995
       H   -10.14846   16.78054   -6.73380
       O   -10.83598   16.53854   -7.38562
      H1   -11.61828   16.58144   -6.82777
       H   -18.19691    9.09607   -4.24003
       O   -17.96831    9.57092   -3.41262
      H1   -18.63874    9.35502   -2.75403
       H   -13.16783    6.64407   -5.70893
       O   -13.64798    6.40029   -6.50403
      H1   -13.23770    6.71108   -7.33923
       H   -15.38320   10.78807   -1.73168
       O   -15.55960    9.83376   -1.89996
      H1   -16.27864    9.68417   -2.47784
       H    -8.56496   17.68042   -5.98816
       O    -8.53918   16.74397   -5.76438
      H1    -7.84965   16.28984   -6.30151
       H    -7.12351   16.03488   -1.94795
       O    -6.67854   15.79849   -1.14768
      H1    -6.91525   14.83924   -0.87597
       H    -5.35943   12.28795   -2.94034
       O    -5.38906   13.24531   -3.05805
      H1    -6.34057   13.38615   -3.36045
       H    -8.91838   12.53016   -1.80622
       O    -9.25481   13.39424   -1.50731
      H1    -9.49695   13.82228   -2.31623
       H   -11.52597   11.46506   -3.43157
       O   -11.97257   12.35596   -3.38879
      H1   -12.70741   12.23905   -2.67463
       H   -14.22933    9.35633    1.42184
       O   -13.96205   10.01383    0.81358
      H1   -14.71317   10.03170    0.25002
       H    -8.05377   17.32502   -4.05497
       O    -7.93044   17.43521   -3.10832
      H1    -7.49837   18.31160   -2.98471
       H    -6.78795   10.53425   -0.25935
       O    -5.81940   10.76489   -0.01832
      H1    -5.73228   11.75915   -0.04986
       H    -9.92239   13.28089    3.50172
       O    -9.20763   13.70766    3.03931
      H1    -9.60020   13.93756    2.21155
       H   -16.80096   14.19103   -1.06303
       O   -16.65978   13.29191   -1.40189
      H1   -17.30671   13.27400   -2.19687
       H   -14.14340   16.68796   -7.16022
       O   -13.50403   16.59079   -6.41550
      H1   -13.83713   15.86076   -5.90463
       H    -9.46746   12.80949   -9.86968
       O    -9.61449   12.37325   -9.03194
      H1   -10.06172   13.08634   -8.54853
       H   -12.08465   13.80531   -8.13651
       O   -11.23794   13.99421   -7.67757
      H1   -11.00952   14.90076   -7.84680
       H   -15.54591   18.70469   -4.98967
       O   -14.68306   18.40229   -4.55171
      H1   -14.25084   17.81427   -5.21339
       H   -11.46712    8.90082   -6.33901
       O   -10.86856    8.19926   -6.68177
      H1   -10.66857    7.68091   -5.90522
       H    -6.81111   12.27769   -7.23741
       O    -7.50904   12.84339   -6.99211
      H1    -8.14258   12.84429   -7.78319
       H   -12.03182   14.14774    0.16119
       O   -12.97907   13.95990    0.21535
      H1   -13.42078   14.46484   -0.47743
       H   -15.57904   11.96898   -6.10031
       O   -15.73553   12.89821   -5.93398
      H1   -14.88978   13.32786   -6.04564
       H    -7.21116    8.12290   -1.46859
       O    -6.26853    8.42436   -1.71581
      H1    -5.77569    7.62085   -1.92481
       H    -9.35320   10.07496   -3.38121
       O   -10.32961   10.11168   -3.23843
      H1   -10.41161    9.94591   -2.27528
       H    -8.75522    6.16824   -1.90756
       O    -8.64856    7.12219   -1.60851
      H1    -9.47994    7.24039   -1.23148
       H    -7.20370    9.77573   -2.89961
       O    -7.74709   10.17867   -3.63843
      H1    -7.57369    9.70460   -4.51231
       H   -11.00380   13.79722   -3.70484
       O   -10.51278   14.65578   -3.86222
      H1    -9.71876   14.41272   -4.32061
       H    -9.92141   14.14509   -0.10456
       O   -10.46838   14.68502    0.55181
      H1    -9.88701   15.45518    0.84826
       H   -12.63904    8.10629   -4.43573
       O   -12.42930    7.24682   -4.12847
      H1   -12.95158    7.12309   -3.33487
       H   -14.81305    9.66837   -7.08567
       O   -15.17220   10.48374   -6.74926
      H1   -15.81498   10.69016   -7.45897
       H   -16.06972   15.00028   -8.17123
       O   -16.78584   14.42130   -7.86285
      H1   -16.29712   13.91968   -7.12154

