165
frame 10 | Written by MDAnalysis XYZWriter (release 2.4.3)
       H    13.22766    5.51054   16.54482
       O    13.14743    4.63296   16.86136
      H1    12.65169    4.12822   16.23279
       H    10.58840    5.45070   17.87506
       O    11.07127    4.86597   18.49596
      H1    11.89825    4.70678   18.04752
       H    16.14902    6.23822   10.79614
       O    15.24754    6.61219   10.73687
      H1    14.83332    6.48163   11.59125
       H     9.85293    8.92819   19.52459
       O     8.98527    8.72124   19.18696
      H1     8.69761    8.06829   19.81151
       H    13.29943   17.79929   16.76302
       O    13.65894   17.59787   15.86860
      H1    13.91186   16.65976   15.87159
       H    16.64944    1.58426   15.42026
       O    17.17485    0.81909   15.17972
      H1    17.19937    0.25166   15.98140
       H    16.73907   18.41878   13.65498
       O    17.24812   17.72020   14.13093
      H1    18.10888   17.67953   13.63251
       H    12.70352   14.53270   18.04967
       O    12.79630   14.40864   19.00804
      H1    13.22964   13.54656   19.18414
       H    17.82678   10.93906   13.19734
       O    17.67139   10.74653   14.12107
      H1    18.28422   11.32465   14.56978
       H     8.87873   10.96465   17.56670
       O     8.30156   10.29980   17.17667
      H1     8.47464    9.57950   17.80601
       H    11.33168    8.84369   11.29616
       O    11.85664    9.54155   11.67967
      H1    12.11758   10.13280   10.92869
       H    10.34173    3.02561   15.65620
       O    11.26136    2.88301   15.56600
      H1    11.51370    3.30173   14.75837
       H    18.23675    6.91325   10.37686
       O    17.87782    5.99516   10.35305
      H1    17.93688    5.81466    9.36614
       H    13.20196    2.68621   13.20731
       O    12.59698    3.40858   13.13375
      H1    11.94619    3.19555   12.44676
       H    18.15074   19.40858   15.87119
       O    18.88192   19.34818   16.51181
      H1    19.16969   18.38284   16.51038
       H    14.08849   11.15776   11.48886
       O    14.72409   10.57774   11.00550
      H1    14.34089   10.35855   10.09930
       H    16.56448    3.61761   13.76660
       O    16.60902    3.79982   14.71475
      H1    15.83371    3.47273   15.16498
       H     9.23877    6.74910   16.32384
       O    10.12572    6.46325   16.12985
      H1     9.97457    5.93176   15.32850
       H    14.17234    8.82895   13.80018
       O    13.26562    8.90977   14.12297
      H1    12.66851    8.79159   13.33742
       H    17.41101   14.28660    9.51785
       O    17.85346   15.09098    9.86942
      H1    17.76084   14.84959   10.80244
       H    11.37280   14.41297   15.69403
       O    11.47445   13.83194   16.48557
      H1    12.27683   13.33306   16.27662
       H    14.55990   15.88035   19.29278
       O    15.41156   16.29824   19.23234
      H1    15.37208   17.11328   19.78059
       H    15.13026    7.71725   17.72773
       O    16.05838    7.39927   17.74834
      H1    16.14486    6.93398   16.88501
       H    18.95701    6.16813   18.47180
       O    18.15403    5.91505   19.05362
      H1    17.50974    6.60994   18.78387
       H    15.75848   17.87220   16.64300
       O    16.36362   17.67730   17.33075
      H1    15.84848   17.16745   18.00635
       H    17.22171   11.85698    9.56912
       O    17.01563   12.63791    9.07265
      H1    17.20430   12.28272    8.16108
       H    19.77901   13.89871   14.16751
       O    19.19372   13.30896   14.63211
      H1    18.90305   13.91627   15.36902
       H    14.02617   11.59176   15.75648
       O    13.17388   11.44832   15.36079
      H1    13.07864   10.51757   15.08137
       H    15.49812    2.38222   19.89683
       O    16.06443    2.48435   19.14487
      H1    15.54757    2.57646   18.31108
       H    10.00793   12.96294   18.87445
       O    10.18354   12.15555   18.36419
      H1    10.94754   12.34218   17.74215
       H    18.39143   15.82442   15.97710
       O    17.53172   15.46514   16.20054
      H1    17.29561   16.22432   16.80517
       H    16.07223    2.42828   11.34739
       O    16.39468    2.45225   12.29973
      H1    17.17888    1.92964   12.35468
       H    17.72781    1.55890   18.74753
       O    18.46330    1.51900   18.13948
      H1    19.03238    2.28401   18.38655
       H     9.33975   11.89076   13.47251
       O     9.93515   11.64648   12.71666
      H1    10.36715   10.94516   13.14069
       H    15.38869   14.73450   12.93373
       O    14.50935   14.89598   13.30289
      H1    13.99382   14.10918   13.07401
       H    17.17524   12.82066   18.67261
       O    16.58010   12.10144   18.36886
      H1    16.23635   12.21232   17.48805
       H    18.13105   14.23315   17.34155
       O    18.88799   13.76089   17.80287
      H1    19.46136   14.45886   18.02587
       H    13.28169    6.58683   13.67624
       O    13.46274    6.24432   12.78802
      H1    13.37918    5.27028   12.81341
       H    17.82853   10.08293   11.17530
       O    17.43410   10.96887   11.46161
      H1    16.48873   10.81875   11.56086
       H    14.29809    2.16702   16.69199
       O    14.98817    2.80191   16.76119
      H1    14.49294    3.61530   16.95781
       H    14.67028   14.80005   14.99555
       O    14.61696   14.87406   15.98455
      H1    15.54470   15.08036   16.19715
       H    18.72396    7.28395   15.58411
       O    19.29110    7.77035   16.23910
      H1    18.68009    8.35958   16.70132
       H    11.99872    6.98939   16.00351
       O    12.92636    6.95583   15.84820
      H1    13.10408    7.78035   15.35004
       H    10.91958    4.75930   11.03051
       O    10.91568    5.44543   11.70226
      H1    11.78473    5.70972   11.95955
       H    16.87800    5.70761   14.66152
       O    17.08507    6.55369   15.03056
      H1    16.64819    7.16857   14.40988
       H    16.30561   11.48922   15.19997
       O    15.75231   12.15119   15.67128
      H1    15.60227   12.83321   15.00635
       H    12.39045   12.53991   12.41802
       O    13.30198   12.54777   12.74227
      H1    13.20905   12.19186   13.64017
       H    19.25008    9.13204    9.97401
       O    18.62312    8.62503   10.54692
      H1    19.29897    8.29574   11.23590
       H    17.41654   15.56569   13.48870
       O    17.33963   14.76110   12.95245
      H1    17.90059   14.05633   13.36793
       H    19.83337   13.84448   11.48113
       O    19.47868   12.99127   11.06771
      H1    18.55044   12.81983   11.23383
       H    15.48980    8.83579   12.60772
       O    15.85891    8.61929   13.51629
      H1    16.44655    9.37281   13.78333
       H    17.39189   10.43539   18.20471
       O    17.76758    9.52742   18.17924
      H1    17.01030    8.95461   18.31040
       H    11.26661   10.83161   15.91869
       O    10.42906   10.75669   15.48196
      H1     9.72425   10.45417   16.13943
       H    14.33355   10.05291   18.97673
       O    14.26148    9.14383   18.63182
      H1    13.98222    8.57823   19.33390
       H    19.15342    2.51364   16.35658
       O    19.31550    3.23874   15.76295
      H1    18.47540    3.45202   15.40821

