165
frame 5 | Written by MDAnalysis XYZWriter (release 2.4.3)
       H   -16.57993   -4.87828   -2.20340
       O   -17.12123   -4.43036   -1.55740
      H1   -17.82665   -3.99924   -2.08804
       H   -13.14085    0.13280    4.05600
       O   -14.08506    0.10287    4.17674
      H1   -14.29254    0.88754    4.63049
       H   -12.85569    3.59415   -0.93090
       O   -12.58334    4.10938   -1.69502
      H1   -12.99538    4.96511   -1.52790
       H   -15.34724   -8.71786    0.77871
       O   -15.22022   -7.85079    0.51908
      H1   -15.07806   -7.92781   -0.42035
       H    -9.70121   -1.41090    2.70779
       O    -8.83040   -1.76455    2.86954
      H1    -8.27095   -1.03857    3.15184
       H   -17.60601   -4.86108    0.36664
       O   -18.05018   -5.09275    1.18931
      H1   -18.84138   -4.49303    1.18249
       H   -19.32429    1.22151    4.31626
       O   -18.38521    1.41102    4.11607
      H1   -18.34616    2.34988    4.26495
       H   -14.80114   -5.08524   -4.18070
       O   -15.54740   -4.45699   -3.98693
      H1   -16.28433   -4.70442   -4.63816
       H   -13.26887   -3.72233   -1.70683
       O   -12.40321   -4.01945   -1.53008
      H1   -11.92613   -3.31362   -1.01359
       H   -15.13157    3.23028    3.72098
       O   -14.58454    2.86337    4.46582
      H1   -15.02225    3.13547    5.29501
       H   -15.71915   -2.58483   -5.00539
       O   -15.82048   -1.71184   -5.34290
      H1   -14.96081   -1.48508   -5.73447
       H   -10.21962   -5.23252    3.61901
       O    -9.82278   -5.32009    4.47210
      H1    -8.86507   -5.27696    4.35956
       H   -11.36727    1.50388    2.41088
       O   -11.57579    1.94237    1.53606
      H1   -11.06571    1.36179    0.94245
       H   -14.10822   -0.54598    2.33725
       O   -13.84282   -0.97885    1.52984
      H1   -14.30991   -1.83349    1.61375
       H   -11.74131   -1.23276    3.75026
       O   -11.39934   -0.31799    3.61861
      H1   -10.76416   -0.05612    4.30309
       H   -16.06110   -1.27444   -0.21456
       O   -16.87941   -1.26700    0.35232
      H1   -16.54767   -1.11486    1.21556
       H   -12.82672   -3.42775    3.65664
       O   -12.64428   -2.60375    4.10901
      H1   -13.47509   -2.09919    4.44198
       H   -18.22851   -8.53171   -1.23819
       O   -18.45758   -7.58488   -1.01792
      H1   -17.71233   -7.10533   -1.37049
       H   -10.17628   -3.96635    6.17827
       O   -10.90709   -3.33159    6.36062
      H1   -11.48781   -3.25707    5.55605
       H   -15.48389    3.30462   -3.07512
       O   -14.63771    2.92759   -3.10137
      H1   -14.07630    3.52238   -2.57121
       H   -14.81918   -4.60479    1.66873
       O   -14.90628   -3.61704    1.58104
      H1   -14.79337   -3.43835    0.63861
       H   -15.07979    3.62125    1.70109
       O   -15.96663    3.52197    2.07379
      H1   -16.41958    2.76061    1.64227
       H   -13.02934    4.78925    3.29447
       O   -13.55818    5.01398    2.54728
      H1   -12.98435    5.08490    1.82335
       H   -13.29232   -6.29608    3.75629
       O   -13.50013   -5.34028    3.94642
      H1   -13.51290   -5.18518    4.90974
       H   -17.73433   -1.81268    7.92307
       O   -17.19049   -2.22972    8.61477
      H1   -16.26577   -2.25274    8.28161
       H   -11.00874    1.83862    7.76709
       O   -11.22439    1.08554    7.17706
      H1   -12.02190    0.74146    7.56415
       H   -13.84844   -1.12945    9.00585
       O   -13.37284   -1.13939    8.18942
      H1   -12.77282   -1.91965    8.28863
       H   -11.13807    0.39392   -1.64247
       O   -11.79894    0.37427   -2.35475
      H1   -11.71230    1.18520   -2.86564
       H   -11.40791   -5.14051   -4.47021
       O   -11.08535   -5.54933   -3.61250
      H1   -11.39255   -4.94811   -2.93224
       H   -19.68381   -2.03437    7.02364
       O   -19.10613   -1.28936    7.13019
      H1   -18.70409   -1.23125    6.25355
       H   -10.71358    4.73660    2.25671
       O   -10.92621    4.68577    1.28414
      H1   -11.19659    3.74742    1.27701
       H   -11.42957   -3.04455    1.03104
       O   -11.71989   -2.27902    0.51220
      H1   -12.50778   -1.83298    0.89597
       H   -11.29010   -4.96408    1.44885
       O   -10.60009   -4.62556    2.04641
      H1    -9.84485   -4.97880    1.57491
       H   -17.34762   -4.38036    4.30364
       O   -17.60592   -3.61764    3.73354
      H1   -17.46609   -3.94788    2.80039
       H    -8.04228   -2.49505   -0.09563
       O    -8.23665   -1.70842    0.35060
      H1    -8.58078   -2.04142    1.19011
       H    -6.60155   -3.79274    3.08296
       O    -7.22456   -3.64334    3.78620
      H1    -7.82452   -2.98218    3.40085
       H   -17.27730   -0.32321    4.48834
       O   -17.32665   -1.08682    5.07459
      H1   -17.28761   -1.83631    4.43931
       H   -18.41052    4.80605    3.83981
       O   -17.84132    4.25357    4.48166
      H1   -17.14003    3.92981    3.91399
       H   -19.50882   -1.12732   -1.92303
       O   -19.34535   -1.69681   -1.19384
      H1   -18.44876   -1.45217   -0.92446
       H   -14.19219    1.50475   -0.32629
       O   -13.93294    2.17175    0.35058
      H1   -13.13857    1.79324    0.72314
       H   -12.45051   -7.99042    2.47036
       O   -13.40573   -8.05875    2.54929
      H1   -13.75205   -7.66528    1.74420
       H   -13.54382    0.17711   -1.63023
       O   -14.46064   -0.01289   -1.38732
      H1   -14.96228    0.35526   -2.18738
       H   -10.04634   -0.33961    7.12021
       O    -9.51991   -1.11005    7.15327
      H1   -10.00253   -1.92427    6.88948
       H   -17.88612   -6.64531    2.37629
       O   -17.12708   -6.98817    2.81683
      H1   -16.38851   -7.04113    2.14196
       H   -12.49630   -1.05898   -3.10019
       O   -12.93096   -1.77138   -3.59409
      H1   -12.71507   -2.53211   -3.13195
       H   -16.86919    0.62698    0.30968
       O   -16.74327    1.58174    0.19564
      H1   -15.83226    1.86927    0.24223
       H   -19.53742    3.77174   -0.65972
       O   -19.67525    3.11637    0.02121
      H1   -19.20576    2.32281   -0.32504
       H   -16.00356   -5.26823    5.41413
       O   -16.79535   -5.68996    5.07881
      H1   -16.53353   -6.11072    4.24781
       H   -15.48114    1.28290   -3.58707
       O   -16.02099    0.48889   -3.53445
      H1   -15.72859   -0.06063   -4.31364
       H   -13.86191   -5.20155    7.47800
       O   -14.24415   -4.84105    6.69220
      H1   -14.44547   -3.88698    6.76574
       H   -18.51630   -5.71811    5.54267
       O   -19.43726   -5.59630    5.64790
      H1   -19.87395   -5.89929    4.82316
       H   -15.75961   -1.73997    5.86869
       O   -15.15234   -2.07925    6.49918
      H1   -14.44093   -1.45253    6.56917
       H   -12.41831   -5.41902   -0.43985
       O   -12.11291   -5.95944    0.32662
      H1   -11.81686   -6.78786   -0.07113
       H   -15.78277   -3.21403   -1.17783
       O   -14.91672   -2.80337   -1.12750
      H1   -14.89165   -1.92122   -1.54147
       H    -9.39045   -0.35357   -0.03748
       O    -9.97770    0.38546   -0.12900
      H1    -9.40063    1.16175   -0.06179

