165
frame 4 | Written by MDAnalysis XYZWriter (release 2.4.3)
       H    -5.64779   10.94858  -12.25691
       O    -5.96901   11.82565  -12.26990
      H1    -6.68228   11.80635  -11.59894
       H    -3.82754   14.15542  -11.58980
       O    -4.31922   13.58568  -10.98438
      H1    -4.70768   12.90886  -11.52831
       H    -2.31054   17.47654  -13.08922
       O    -2.06680   18.19304  -13.66286
      H1    -1.89243   17.76756  -14.52182
       H     1.74062   11.53366   -5.54095
       O     2.61896   11.26470   -5.93737
      H1     3.05583   12.01055   -6.37290
       H    -5.73951    9.60819   -7.36665
       O    -6.33297    9.34480   -6.65550
      H1    -6.58464    8.45464   -6.97665
       H    -0.54803    7.79102   -3.79173
       O    -0.18401    7.46801   -4.61595
      H1    -0.37010    8.07722   -5.34451
       H     0.55232   16.62755  -12.76479
       O     0.64461   16.08825  -11.94275
      H1     0.41394   16.72740  -11.25689
       H    -1.31186    3.76617   -7.72039
       O    -1.52830    4.52801   -8.25201
      H1    -1.09036    4.55750   -9.14450
       H     2.02410   12.19977  -13.27684
       O     1.80790   12.08789  -12.32627
      H1     0.81868   12.16554  -12.35588
       H    -4.23338    7.23852   -5.95146
       O    -3.91825    8.13464   -6.16382
      H1    -4.70472    8.62064   -6.40743
       H    -4.01087    9.14488   -4.61643
       O    -4.16248    9.88284   -3.97902
      H1    -4.91617    9.50302   -3.55042
       H    -1.34879    6.25141  -13.27907
       O    -1.20826    5.24364  -13.30457
      H1    -1.46972    4.96406  -12.41595
       H    -3.40871    7.90627  -10.73992
       O    -3.96813    7.12030  -10.81681
      H1    -4.30224    7.18701  -11.73718
       H    -0.85643   13.73278  -13.26923
       O    -0.97998   13.92839  -12.37459
      H1    -0.43374   14.65755  -12.12646
       H     0.90830    8.88881   -9.04418
       O     0.21892    8.37951   -9.57921
      H1     0.56180    7.46568   -9.62871
       H    -1.84160    9.75971  -14.94545
       O    -1.70148   10.56437  -14.50049
      H1    -2.62371   10.83459  -14.31122
       H     3.40273    9.23177  -11.65268
       O     4.31990    9.12971  -11.51931
      H1     4.68057   10.07469  -11.51803
       H    -6.26926   14.24509  -10.41661
       O    -7.16658   14.08886  -10.18857
      H1    -7.75845   14.65484  -10.74462
       H     1.19381   14.67514   -8.01848
       O     0.95892   14.39302   -8.91508
      H1     1.74861   14.55270   -9.48240
       H    -3.82084    9.74904   -9.13797
       O    -4.60215   10.24503   -8.80459
      H1    -4.23486   11.12871   -8.58590
       H    -0.31699    5.31287   -7.11061
       O     0.53021    5.47483   -6.64630
      H1     0.34044    5.91100   -5.81638
       H     1.67646    5.70468   -9.98307
       O     1.00869    5.39803  -10.60421
      H1     1.43797    5.51519  -11.49343
       H    -0.42448   12.22201   -4.97319
       O    -0.06372   12.43750   -5.85630
      H1    -0.76427   12.32287   -6.54562
       H    -4.73075    9.28965  -14.25358
       O    -4.52509   10.22713  -14.32215
      H1    -5.25475   10.65164  -14.81560
       H    -4.55250   16.48383  -12.55012
       O    -5.49721   16.71470  -12.72342
      H1    -5.41157   17.55036  -13.25914
       H    -1.05272   11.32259  -10.43756
       O    -1.12444   11.06018  -11.37341
      H1    -1.50261   11.95484  -11.59196
       H     2.66378    5.64394  -13.44428
       O     1.77192    5.76879  -13.10268
      H1     1.18504    5.12295  -13.55064
       H     0.33667   11.26380   -8.38324
       O    -0.31923   11.89620   -8.73984
      H1     0.15545   12.68751   -8.95422
       H     5.95863   14.85938  -10.57019
       O     5.46108   14.12880  -11.03735
      H1     4.53061   14.28146  -10.94102
       H    -1.42049    7.58541  -16.04173
       O    -0.90974    8.32567  -15.75178
      H1    -0.50094    8.11329  -14.89622
       H     0.63773    9.82790  -14.82999
       O     1.49823    9.48143  -14.71632
      H1     1.48710    9.43044  -13.72984
       H    -1.72601    8.94623   -9.55482
       O    -2.53367    9.20956   -9.98447
      H1    -2.25115    9.87858  -10.64082
       H     2.20775   12.43342  -16.35324
       O     2.35275   12.51142  -15.41656
      H1     3.04647   11.85623  -15.32882
       H    -3.66557    3.69940  -11.66748
       O    -3.14097    4.42122  -11.45530
      H1    -3.64717    5.14728  -11.04991
       H    -1.65172    9.71325   -7.05073
       O    -1.43196    9.36730   -6.15268
      H1    -2.15468    8.71938   -5.89529
       H     4.95007    9.44468   -7.94318
       O     5.11383   10.32900   -7.55613
      H1     4.45087   10.61062   -6.94662
       H    -3.45123   14.27399  -16.52297
       O    -2.87473   13.51369  -16.68010
      H1    -3.39173   12.82178  -17.04766
       H    -6.99867   13.65610  -13.06287
       O    -7.06267   14.47399  -13.60867
      H1    -6.40618   15.11535  -13.20005
       H     2.26817   13.74794  -11.43604
       O     2.75694   14.44392  -10.99208
      H1     2.40366   15.26244  -11.31204
       H     4.61014    8.46908   -9.89184
       O     4.68905    8.02661   -9.02145
      H1     3.91469    7.44832   -8.92366
       H     4.53944   13.24687   -6.16184
       O     4.23426   13.17548   -7.06029
      H1     5.01479   13.07331   -7.63628
       H     0.77398   15.74078   -5.94804
       O     1.38707   15.03717   -6.20975
      H1     0.90362   14.27106   -5.99331
       H     0.57231   12.68419  -15.35973
       O    -0.30307   12.98101  -15.11434
      H1    -0.86570   12.22099  -15.39179
       H    -3.41881    7.34612  -13.46464
       O    -4.35665    7.48926  -13.42391
      H1    -4.99483    6.89232  -13.86604
       H     5.66350   12.90669   -9.85140
       O     6.10955   12.60635   -9.01575
      H1     5.77968   11.76681   -8.76692
       H    -2.79397   14.93739   -6.08520
       O    -2.80800   15.05718   -7.03852
      H1    -1.99977   15.53094   -7.29119
       H    -2.30755   15.40557  -12.01691
       O    -3.06777   16.00627  -11.96572
      H1    -3.25257   16.19170  -11.04220
       H    -1.06417    8.70812  -12.61960
       O    -1.11952    7.77818  -12.90320
      H1    -0.23505    7.52502  -12.80178
       H     1.49136   10.12482  -11.92124
       O     1.54311    9.18754  -11.79765
      H1     0.87391    9.00501  -11.03924
       H     0.26580    9.70267   -6.94724
       O     1.03664    9.80944   -7.50646
      H1     1.66869   10.29435   -6.93007
       H    -3.71707   13.05001   -9.17446
       O    -3.39062   12.70718   -8.32003
      H1    -3.15383   13.50391   -7.80334
       H    -4.03840   16.31101   -8.66696
       O    -4.36569   16.95839   -9.33992
      H1    -4.03042   17.83592   -9.08950
       H     3.07291    5.17738   -8.45598
       O     2.62543    6.05242   -8.41947
      H1     1.80232    5.96585   -7.92548
       H    -0.26915   15.61524   -8.74698
       O    -0.81765   16.34945   -8.34973
      H1    -0.43755   17.16244   -8.72032
       H    -3.40783    9.92476  -17.45933
       O    -3.75929    9.32676  -16.74832
      H1    -4.09517    9.89383  -16.03769

