165
frame 5 | Written by MDAnalysis XYZWriter (release 2.4.3)
       H     8.84468   -1.81453   -1.17349
       O     8.45186   -2.24622   -1.93012
      H1     9.05374   -3.03673   -2.01507
       H     6.32960   -1.96411    3.01429
       O     6.04506   -1.33869    2.38166
      H1     6.64623   -0.53397    2.39571
       H     6.21622   -1.64950   -3.42190
       O     5.79018   -2.27255   -4.01856
      H1     5.71965   -3.07067   -3.44767
       H    -0.88950    3.94439    0.86035
       O    -1.29320    3.55272    0.04245
      H1    -1.77621    2.76615    0.31439
       H     0.39832    3.15028    2.48139
       O     0.12583    4.09531    2.25866
      H1     0.88832    4.50532    1.80872
       H     6.58253    3.28688    4.92959
       O     7.28173    2.67863    4.60366
      H1     7.62890    2.21401    5.38593
       H    -0.45830   -1.94001   -5.18200
       O    -1.21124   -1.85578   -4.54444
      H1    -0.75225   -1.59432   -3.75467
       H     6.72574   -2.47790    1.00411
       O     6.82376   -3.10244    0.30066
      H1     7.22884   -2.65459   -0.46478
       H     2.02476    5.09623   -0.05602
       O     2.73161    4.43429   -0.01677
      H1     2.37732    3.59263    0.21179
       H    -1.51990   -4.92632    0.99452
       O    -1.32907   -4.63725    0.08528
      H1    -0.37583   -4.62552   -0.01744
       H     1.47512    1.59335   -0.91072
       O     1.85277    1.70077   -0.04078
      H1     2.78450    1.40977   -0.04920
       H     5.88368   -5.72398    2.84022
       O     6.64227   -5.19693    2.59396
      H1     6.39394   -4.77111    1.77890
       H     4.67224    0.04223    4.40378
       O     3.80158    0.21122    4.76808
      H1     3.91959    1.08869    5.09121
       H     0.31328   -3.10389    2.83931
       O     0.96054   -2.80762    3.45849
      H1     0.49771   -2.25318    4.17687
       H    10.28302    3.16893   -1.71609
       O    10.38738    4.11539   -2.00828
      H1    11.29407    4.19296   -2.25648
       H     2.13009   -2.51212   -1.06687
       O     2.66362   -3.01971   -1.74186
      H1     2.39932   -2.81586   -2.66619
       H     6.13594    5.01849    5.22546
       O     5.55864    4.38265    5.69238
      H1     5.82359    4.67233    6.58177
       H     1.58727   -4.42704   -1.12717
       O     1.07251   -5.19304   -0.87741
      H1     0.69866   -5.46636   -1.71725
       H     3.77591   -3.40121    5.04584
       O     4.25286   -3.44155    4.17962
      H1     3.72880   -3.96951    3.52583
       H    10.15320   -1.75174    4.87761
       O     9.65968   -0.91573    4.95838
      H1     8.74347   -1.22190    4.89760
       H     2.69930   -4.04401    1.60075
       O     2.55534   -4.65845    2.37464
      H1     2.08354   -4.10544    2.98320
       H     5.17458    2.73456    0.19686
       O     5.83897    3.11520   -0.39173
      H1     5.35327    3.76380   -0.99683
       H     4.28276    4.00503   -3.66507
       O     4.21042    3.59421   -4.54633
      H1     3.52736    2.96172   -4.40453
       H     3.44575   -2.63176   -4.39813
       O     2.51048   -2.54226   -4.30203
      H1     2.22227   -2.69959   -5.22742
       H     6.47673    0.64237   -2.44873
       O     5.71135    0.02041   -2.54261
      H1     5.50113   -0.28931   -1.69757
       H     1.86934    4.23127   -3.24344
       O     1.87792    3.44584   -2.66931
      H1     2.41982    3.75455   -1.93267
       H    -0.84338   -1.09697   -1.51352
       O    -0.23305   -0.81579   -2.21268
      H1    -0.40676    0.08479   -2.37769
       H     2.86730   -0.19109    3.22323
       O     2.21940   -0.50470    2.58318
      H1     1.96216   -1.32158    2.98890
       H     6.98511    0.18831    6.48604
       O     7.19423    0.96683    7.02662
      H1     7.67975    0.58502    7.77288
       H     7.28323    6.27644    4.10419
       O     6.71783    5.67241    3.64451
      H1     7.16490    5.40280    2.83214
       H     7.74104    7.02639   -1.25924
       O     8.51954    6.73086   -0.73613
      H1     8.12559    6.03837   -0.14620
       H     7.19433    1.49824    1.51503
       O     6.42971    1.39776    2.00973
      H1     6.60014    1.86406    2.80401
       H    10.44882    1.08751   -1.56944
       O     9.74757    1.68865   -1.25585
      H1     9.04125    1.62983   -1.90654
       H     4.18563    0.32626   -4.38383
       O     3.25283    0.60010   -4.54300
      H1     2.70506    0.16926   -3.86390
       H     0.73711   -0.40887    5.93346
       O    -0.11509   -0.76749    5.59436
      H1    -0.73780   -0.03248    5.71841
       H    -1.18059    2.08541   -1.99471
       O    -0.63113    1.86317   -2.76242
      H1     0.16003    2.35482   -2.51364
       H     7.58794    2.42002   -3.74968
       O     7.65109    2.06176   -2.84658
      H1     6.99024    2.48345   -2.25294
       H     2.41348    1.04469   -6.27026
       O     2.11700    1.10997   -7.18566
      H1     1.52311    1.85354   -7.13583
       H     5.11719   -5.14685   -2.97911
       O     5.83955   -4.55752   -2.74075
      H1     6.20809   -4.98637   -1.99845
       H     3.09385   -0.08195    6.15753
       O     2.54105   -0.48111    6.89757
      H1     2.76467   -0.25798    7.76469
       H     6.87338   -1.87841    5.94768
       O     6.56614   -1.31875    5.19910
      H1     5.72305   -1.72315    4.95872
       H     3.92498   -8.00898    0.40743
       O     3.43807   -7.27323    0.77216
      H1     3.36346   -6.49876    0.26575
       H     4.39241   -3.12295   -6.55999
       O     5.21083   -2.63070   -6.75896
      H1     5.50826   -2.42117   -5.88691
       H     4.35048    5.54106   -1.29244
       O     4.91137    5.16341   -1.95336
      H1     5.59622    5.83137   -2.18860
       H     3.94123   -4.01262   -0.91457
       O     4.32103   -4.39463   -0.15299
      H1     5.08880   -3.83416   -0.03201
       H    -2.03948   -1.72786    1.34873
       O    -1.47084   -2.03265    0.60487
      H1    -1.64276   -2.98911    0.53641
       H    -2.65004    0.66062    0.07366
       O    -2.33879    1.18281    0.86860
      H1    -3.12614    1.33016    1.39914
       H    -0.62765    0.98045    2.09120
       O     0.08926    1.31265    2.69850
      H1     0.85308    0.73930    2.45182
       H     9.09269   -0.05181   -3.83202
       O     9.83629   -0.63338   -3.72508
      H1     9.36454   -1.23272   -3.07852
       H     8.11523    2.00390   -6.37017
       O     7.86424    2.59126   -5.59094
      H1     8.50818    3.29711   -5.53863
       H     4.12036    2.46692    7.05350
       O     3.60576    2.58578    6.25073
      H1     4.04420    3.29543    5.83271
       H     5.19743    0.80012    0.61625
       O     4.54394    0.30935    0.11973
      H1     4.18630   -0.32893    0.78271
       H     1.54573   -1.49803    1.17794
       O     1.45000   -2.22841    0.54857
      H1     0.55959   -2.07664    0.15277
       H     7.08218    4.22756    0.37642
       O     7.73636    4.73247    0.86669
      H1     8.56112    4.18943    0.89608
       H     9.44153    0.18715    0.02231
       O     8.89880   -0.52892    0.36413
      H1     9.45373   -1.07178    0.97271

