165
frame 10 | Written by MDAnalysis XYZWriter (release 2.4.3)
       H     7.02349  -18.21945   14.45726
       O     6.76601  -17.30346   14.21776
      H1     5.85236  -17.15229   14.39355
       H    -2.11055  -16.95502   15.30092
       O    -1.53402  -17.61655   14.91749
      H1    -1.68963  -18.43518   15.38138
       H    -6.21831  -16.77008   12.99848
       O    -6.25355  -15.84425   13.25290
      H1    -5.52761  -15.39161   12.72739
       H    -6.96224  -16.99381   19.05013
       O    -7.79869  -16.54782   19.15590
      H1    -7.92216  -16.03184   18.30357
       H     1.07237  -11.37199   11.69262
       O     1.29470  -12.33100   11.53936
      H1     1.11776  -12.41594   10.60164
       H     4.53577  -14.80071   19.19236
       O     4.95040  -15.65881   19.09111
      H1     5.77569  -15.29614   18.70552
       H    -9.06383  -14.35987   18.06343
       O    -8.52675  -14.65050   17.37933
      H1    -7.97955  -13.85257   17.23972
       H    -5.89379  -19.48070   13.89248
       O    -5.99444  -18.84249   13.20738
      H1    -6.78849  -19.17632   12.73786
       H    -7.77454  -11.59687   13.50885
       O    -7.68283  -12.19449   14.35030
      H1    -8.57444  -12.22271   14.69617
       H    -4.60296  -13.76334   17.46159
       O    -4.57381  -14.69806   17.79302
      H1    -4.95443  -14.69844   18.64801
       H    -3.72762  -11.79227   17.79410
       O    -4.10585  -12.09057   16.94031
      H1    -3.36046  -12.49882   16.46428
       H    -1.39107  -16.29373   18.15278
       O    -2.34350  -16.36242   17.95625
      H1    -2.71153  -15.41835   17.74011
       H    -0.83252  -14.39213   18.08462
       O    -1.13490  -13.48931   17.88054
      H1    -0.40364  -13.06049   17.55015
       H    -1.33533   -8.81739   12.98919
       O    -0.91921   -7.97107   12.80310
      H1    -1.22151   -7.75382   11.92213
       H    -1.43367  -10.85175   13.23024
       O    -1.74712  -10.20521   13.91792
      H1    -1.10567  -10.08240   14.60973
       H    -4.00740  -10.97160   15.39404
       O    -4.20785  -10.24398   14.79035
      H1    -3.35165  -10.17037   14.32521
       H    -3.75077  -16.17200   11.36274
       O    -3.49700  -15.66474   12.10340
      H1    -2.96554  -16.17318   12.67941
       H    -0.66243   -6.87619   17.56661
       O    -1.19394   -7.65524   17.63071
      H1    -1.90571   -7.58124   17.01297
       H     0.18319  -10.57800   16.19564
       O     0.14384   -9.66481   15.90819
      H1    -0.45108   -9.21639   16.51654
       H    -5.65441   -7.94955   17.80913
       O    -5.59085   -8.88426   17.97671
      H1    -5.87745   -9.33829   17.11191
       H    -0.86631  -18.21440    8.98223
       O    -1.38223  -18.02355    9.77557
      H1    -0.92041  -18.20925   10.52878
       H    -8.55549  -15.74897   15.68038
       O    -8.94072  -16.10006   14.88960
      H1    -8.21534  -16.00233   14.26247
       H     6.67532  -11.69646   19.12084
       O     6.51120  -11.60473   18.12725
      H1     7.00227  -10.82429   17.84840
       H     2.67823  -19.97157   16.01772
       O     3.55005  -19.77309   15.58659
      H1     3.46166  -18.90123   15.18295
       H    -5.13889  -17.44899   17.60556
       O    -5.26427  -17.58372   18.59083
      H1    -4.45355  -17.32718   19.02985
       H     4.13610  -10.80350   15.06203
       O     4.68602  -10.26945   14.44168
      H1     4.14208   -9.94205   13.68821
       H    -5.67740  -18.89821   15.73360
       O    -5.37678  -19.76000   16.07086
      H1    -4.42093  -19.84414   15.84409
       H     0.57763   -8.80391   12.08581
       O     1.08727   -9.51591   11.75066
      H1     2.00556   -9.27164   11.76305
       H     0.15847  -15.96221   19.73301
       O     0.15093  -15.73041   18.76020
      H1     1.01285  -16.04187   18.40418
       H    -4.83004  -12.00229   11.46974
       O    -5.15476  -11.26731   12.04846
      H1    -4.83043  -11.58864   12.85657
       H     3.20271  -10.88318   16.65623
       O     3.66206  -11.75969   16.63872
      H1     4.46224  -11.58615   17.11537
       H     2.71214   -7.35878   18.90585
       O     1.74783   -7.27754   18.87836
      H1     1.55687   -7.52856   17.94157
       H    -2.50866   -8.66572   18.75952
       O    -3.11357   -9.40160   19.02302
      H1    -3.94403   -9.06443   18.70257
       H     2.80163  -16.80745   12.18853
       O     2.91315  -16.14311   12.86750
      H1     3.70257  -15.66173   12.54042
       H     4.31061   -8.60596   20.19555
       O     4.75403   -8.18042   19.40708
      H1     4.66412   -8.78576   18.67139
       H     4.98477  -17.28521   18.18698
       O     5.51632  -18.08997   17.95503
      H1     4.84221  -18.70686   17.63710
       H    -0.25665  -12.80535   12.44858
       O    -1.20386  -12.72965   12.57329
      H1    -1.46037  -13.37224   11.91427
       H    -6.18278   -9.41423   14.71356
       O    -6.68530   -9.00883   15.40605
      H1    -7.60614   -9.04166   15.05714
       H    -0.41137  -19.83085   12.67598
       O    -0.85149  -19.03826   12.33153
      H1    -1.10466  -18.45612   13.03685
       H     2.44405  -14.32424   14.43659
       O     1.65928  -14.39638   15.03146
      H1     1.61819  -15.34680   15.13617
       H     2.51985  -17.17991   18.52106
       O     2.50276  -16.59269   17.71055
      H1     2.42760  -17.11680   16.89693
       H     4.11456  -12.42539   14.47570
       O     3.96070  -13.25896   14.05826
      H1     4.48829  -13.30360   13.29242
       H     6.87813  -13.31101   17.60975
       O     6.92496  -14.29277   17.39458
      H1     6.04691  -14.58474   17.01089
       H    -6.18717  -12.16054   17.32873
       O    -7.05026  -12.21869   17.01294
      H1    -7.06975  -12.08920   16.09213
       H     3.60871  -14.70362   16.93602
       O     4.38579  -14.84151   16.34365
      H1     4.24003  -14.26996   15.56785
       H    -3.91094   -7.07877   16.56548
       O    -3.43162   -7.65580   15.89995
      H1    -3.90896   -8.51630   15.72014
       H    -5.40204  -15.73142   16.64263
       O    -5.65025  -16.50914   16.13589
      H1    -5.70139  -16.21328   15.23672
       H     0.81165  -19.89051   19.94500
       O     0.39299  -19.07367   19.55273
      H1     0.80675  -19.16494   18.70317
       H     1.48690  -16.91345   13.86469
       O     1.20349  -17.09861   14.77248
      H1     0.21218  -17.18615   14.75993
       H     3.14402  -12.17744   11.10147
       O     4.05535  -11.93982   10.93586
      H1     4.26518  -12.07509    9.99805
       H    -9.94606  -10.50161   17.43550
       O    -9.49767  -11.22615   17.87506
      H1    -8.57714  -11.32868   17.59865
       H     4.14968  -16.50175   15.75776
       O     4.14926  -17.15087   15.02328
      H1     3.63945  -16.63428   14.35305
       H     2.04190   -9.22727   16.29903
       O     2.98814   -9.17049   16.52872
      H1     3.54156   -9.13828   15.77147
       H    -1.62658  -13.36402   14.36025
       O    -2.15695  -13.64432   15.13043
      H1    -1.56434  -13.68523   15.88604
       H     1.29784  -12.92435   15.98325
       O     1.08830  -12.23189   16.70233
      H1     2.03323  -12.02788   16.89967

