165
frame 6 | Written by MDAnalysis XYZWriter (release 2.4.3)
       H    18.99377  -10.68734   13.49868
       O    19.81617  -11.28956   13.64618
      H1    19.45459  -12.14957   13.86559
       H     9.02718  -11.99486    9.55238
       O     9.22239  -12.86218    9.13777
      H1     8.61725  -13.46708    9.64427
       H    16.69994  -11.12217   14.08440
       O    16.43876  -11.87380   14.68538
      H1    15.54745  -11.62680   15.07503
       H    11.77699   -5.79963   10.02372
       O    10.95431   -5.77837   10.53829
      H1    10.63234   -4.87438   10.64859
       H    11.66351  -16.66872   12.13751
       O    12.15149  -17.03531   11.40626
      H1    11.56665  -17.64556   10.96138
       H     9.02064  -13.79496   13.55650
       O     9.32653  -14.57076   14.00757
      H1     8.90539  -14.58832   14.89668
       H    16.68433  -14.22879   17.24405
       O    16.79806  -15.00595   16.72827
      H1    17.62564  -15.40336   17.06678
       H     8.00032  -11.17584   11.55511
       O     8.04436  -10.76130   10.66197
      H1     8.56398  -10.00997   10.87959
       H    12.20631  -13.39059   14.68563
       O    11.59935  -13.41926   15.42624
      H1    10.82633  -13.84305   15.05693
       H    13.57818   -6.13211   10.27213
       O    13.22567   -6.10719    9.36386
      H1    13.44253   -5.29163    8.88954
       H    18.89189  -12.43361    7.13231
       O    18.61858  -13.03824    7.86208
      H1    19.34903  -13.51224    8.25563
       H    11.43813  -11.78056   14.92642
       O    11.44322  -10.82026   14.90696
      H1    11.54207  -10.69386   13.96551
       H    15.67794  -12.08149    5.29435
       O    15.94859  -12.11914    4.36934
      H1    16.85597  -11.85122    4.13765
       H    12.76995   -8.72154    6.31703
       O    13.38089   -9.56414    6.35082
      H1    14.25812   -9.19078    6.26258
       H    16.43750  -16.06012   13.85770
       O    17.18006  -16.32679   13.28367
      H1    17.91887  -16.64952   13.78468
       H    18.32275  -11.19608   10.48711
       O    17.57604  -11.78163   10.20990
      H1    17.82914  -12.04952    9.33717
       H    13.24747  -11.22125   15.73549
       O    14.10859  -10.94851   16.10759
      H1    14.05599  -11.22906   17.01115
       H    14.07827  -13.02951   10.31045
       O    14.06714  -12.11334    9.98631
      H1    13.24007  -11.97182    9.56846
       H     8.14750   -8.63400   13.74355
       O     8.71127   -7.99460   13.28241
      H1     9.00625   -8.39353   12.40630
       H    11.09586   -6.18925   14.51417
       O    11.36504   -6.96690   14.01577
      H1    10.50977   -7.38400   13.80002
       H    11.08826   -9.52249   16.48093
       O    10.69324   -9.25930   17.31811
      H1    10.74814  -10.04950   17.84940
       H    12.40507   -8.49858   17.68919
       O    13.32383   -8.14412   17.61806
      H1    13.39886   -7.61430   18.46868
       H    13.76576   -7.76216    8.81401
       O    14.06397   -8.72214    8.91656
      H1    13.53593   -9.21939    8.30233
       H    14.59082   -7.87719   14.51150
       O    13.97059   -8.07714   13.82283
      H1    13.18909   -7.46283   13.80219
       H    15.81938  -12.03591   18.72916
       O    16.40577  -12.79112   18.57247
      H1    16.99342  -12.37344   17.96056
       H    18.82693  -11.69172   16.69183
       O    17.99737  -11.20563   16.89473
      H1    17.53437  -11.46611   16.08372
       H    17.71406  -13.17147   14.30171
       O    18.15203  -13.75555   13.68206
      H1    17.58118  -14.49783   13.72879
       H    11.26046  -11.91550   11.80582
       O    11.41438  -10.99562   12.09757
      H1    12.32463  -10.78436   12.19723
       H    10.78284   -9.19334   11.35954
       O    10.08844   -8.61605   11.00476
      H1    10.50690   -7.74190   10.76494
       H    15.25611  -13.03881    8.38695
       O    15.61319  -12.80983    7.49463
      H1    16.52123  -13.16768    7.46180
       H    14.01364  -13.85885   13.87319
       O    13.37632  -13.37640   13.42591
      H1    13.68793  -12.49765   13.42781
       H    15.56213   -9.26718   16.33796
       O    15.56852   -8.35107   16.17820
      H1    14.81566   -8.13067   16.73138
       H     7.52562  -11.59568   13.63025
       O     7.87762  -12.39373   13.12914
      H1     7.15302  -13.02916   13.12434
       H    12.59612  -14.63024    9.31362
       O    12.39145  -14.91983    8.40650
      H1    12.80471  -14.31157    7.75309
       H    11.16415   -6.86919    6.91480
       O    11.75191   -7.29755    6.27293
      H1    12.42653   -6.69677    6.05384
       H    14.05520   -6.74804   12.66387
       O    14.23614   -6.16663   11.87166
      H1    14.03937   -5.26321   12.23307
       H    20.31833   -8.99746   16.47553
       O    19.57589   -8.70050   17.09044
      H1    18.97612   -9.48427   17.07113
       H    14.26698   -9.74999   13.32679
       O    14.09249  -10.57635   12.84197
      H1    14.38393  -10.30977   11.92326
       H    13.25062  -15.56797   11.14133
       O    13.20971  -14.56260   10.94468
      H1    12.91091  -14.27165   11.78944
       H    17.07444  -14.24081   10.80151
       O    17.07993  -15.16951   10.66856
      H1    17.15000  -15.63543   11.47201
       H    18.90448   -9.43636    7.06446
       O    18.88309   -8.52092    7.47593
      H1    19.28839   -7.94968    6.82847
       H    19.62879  -15.97503    9.90479
       O    19.80354  -15.02180    9.93128
      H1    19.00260  -14.50892    9.84600
       H    15.62955  -15.45146   15.34814
       O    15.00256  -15.71188   14.68465
      H1    14.62342  -16.61089   14.92251
       H    17.70833   -8.89784   13.50684
       O    17.42076   -9.72589   13.04207
      H1    16.80615   -9.62885   12.31557
       H    10.96465   -4.16352    7.98325
       O    10.53399   -5.08097    7.97807
      H1    10.55190   -5.36505    8.89365
       H    16.35748   -6.69228   16.47656
       O    16.67460   -5.77454   16.54807
      H1    17.12166   -5.60445   15.71480
       H    17.18995   -6.97484   11.10937
       O    16.86346   -6.35135   11.80510
      H1    15.89927   -6.41919   11.73375
       H    15.53381   -8.51533    7.37751
       O    16.13425   -8.58878    6.69007
      H1    17.00884   -8.34093    7.05047
       H    18.12574   -6.64558   13.70739
       O    18.49187   -7.43468   14.18386
      H1    19.44164   -7.19528   14.20227
       H    16.35787  -15.91536    8.97091
       O    16.40891  -16.49342    8.24320
      H1    15.52974  -16.86158    8.06381
       H    13.73022   -3.56466   14.08994
       O    13.98715   -3.46252   13.16904
      H1    14.87945   -3.10363   13.16175
       H    15.83519  -10.73209   10.37934
       O    15.69720   -9.80047   10.73439
      H1    15.04449   -9.49916   10.05003
       H    18.41758   -8.27013    9.32488
       O    17.98640   -8.13573   10.20808
      H1    17.26060   -8.78705   10.32783
       H    11.22098  -12.23156    7.93289
       O    12.03144  -11.66458    7.97624
      H1    12.22953  -11.33430    7.10890
       H    10.17209   -9.09922    9.40347
       O    10.24704   -9.37888    8.45649
      H1    10.97874  -10.03012    8.48258

