165
frame 9 | Written by MDAnalysis XYZWriter (release 2.4.3)
       H    12.16042   -6.51213    9.53566
       O    11.27795   -6.40525    9.85866
      H1    11.26386   -5.91052   10.69569
       H     5.72964   -8.10192    9.25261
       O     5.61638   -7.96478   10.24605
      H1     6.04781   -8.72658   10.60851
       H     8.21353   -3.28183   17.55514
       O     8.78622   -3.55997   16.84189
      H1     9.58312   -2.99965   17.00143
       H     5.55101    2.38803   11.31386
       O     5.09419    1.65798   11.71348
      H1     5.35219    1.76002   12.65638
       H     8.07193    2.86519   16.46924
       O     7.58295    2.03709   16.44393
      H1     6.82905    2.18746   15.89579
       H     4.61671   -2.28568   13.03092
       O     5.25466   -2.65980   12.41810
      H1     5.02507   -2.41370   11.52827
       H     7.76283   -3.94240   12.88760
       O     8.12517   -4.07941   12.00345
      H1     7.48117   -4.57578   11.47955
       H     5.18919   -7.22585    6.94370
       O     5.96092   -7.36708    7.45159
      H1     6.58704   -7.83893    6.91912
       H     3.97176   -3.87900    8.83615
       O     4.58537   -3.49241    9.49661
      H1     5.27518   -4.16746    9.68035
       H     2.69168   -2.97736    7.39292
       O     2.82129   -3.93690    7.52981
      H1     1.89703   -4.21056    7.43825
       H     8.98911   -4.99269    4.76687
       O     9.72575   -4.30999    4.75684
      H1    10.21521   -4.51916    3.93045
       H    11.12258   -3.39143    6.02256
       O    11.41026   -3.50056    6.98485
      H1    12.16498   -2.79847    7.07268
       H     4.59644   -0.86775    5.62564
       O     3.83568   -0.24605    5.58784
      H1     4.02928    0.51464    6.23528
       H     5.51249   -3.78357    5.08424
       O     5.39884   -4.68850    4.86733
      H1     4.57122   -4.61025    4.32364
       H     8.30328   -8.89911   13.73130
       O     8.88366   -8.27735   13.28709
      H1     9.06607   -8.65177   12.40056
       H    12.72641   -1.87417   13.21584
       O    12.66903   -0.94079   13.25908
      H1    11.71028   -0.81671   13.07702
       H     4.66329   -4.76607   16.25964
       O     5.15304   -3.87670   16.17483
      H1     6.04654   -3.99630   15.79535
       H     5.08288   -0.77439   17.32382
       O     5.16914   -1.05667   16.41251
      H1     5.19339   -2.00035   16.38614
       H     7.15073   -6.07437    7.32709
       O     7.87058   -5.53788    7.61728
      H1     8.55873   -5.60155    6.93277
       H     2.68067    0.64329    9.75836
       O     2.31915   -0.18799   10.02555
      H1     3.17939   -0.72614   10.14946
       H     6.41233   -6.33261   10.20528
       O     6.68459   -5.40081   10.13320
      H1     7.23932   -5.34474    9.36479
       H    13.50334   -1.54337    8.28048
       O    13.67327   -1.98586    7.43993
      H1    13.98611   -1.30492    6.79562
       H     8.57045    1.79614    7.10461
       O     8.41599    1.86150    6.17631
      H1     9.07935    1.25075    5.79757
       H    11.28963   -9.23226   10.80424
       O    10.47995   -8.80255   10.92069
      H1    10.64379   -7.84619   10.63739
       H    11.24639   -7.13183   16.34141
       O    10.92717   -6.59370   15.61047
      H1    11.20214   -5.70911   15.87965
       H     2.74684   -1.04071   13.84540
       O     3.57915   -1.49598   14.15886
      H1     4.03285   -0.96896   14.81833
       H     2.27146   -4.79934   10.94218
       O     1.38719   -4.89030   10.63027
      H1     0.98438   -4.02440   10.72559
       H     9.49337   -0.08270   12.98565
       O     9.69236   -0.52891   12.15492
      H1     8.81260   -0.55119   11.67112
       H     6.14425    0.90442   14.15990
       O     5.71722    1.78319   14.30641
      H1     4.96442    1.61822   14.87771
       H     8.53799   -1.63843    9.78600
       O     7.92068   -1.53759   10.52185
      H1     7.98197   -2.45161   10.90606
       H     6.31874   -0.79860   10.34531
       O     5.47819   -0.49272    9.99873
      H1     5.18317    0.15094   10.66842
       H    10.53963   -0.94698   16.67622
       O    11.31974   -1.47272   16.46739
      H1    11.19283   -1.43568   15.46223
       H     7.64823   -4.72887   14.66719
       O     7.51640   -3.76093   14.60653
      H1     7.96412   -3.43198   15.37965
       H     4.30582   -4.25824   12.40021
       O     3.99845   -5.04540   11.95143
      H1     4.33228   -4.90360   11.01843
       H     4.78360   -6.25267   13.38823
       O     4.99176   -6.60861   14.27022
      H1     4.93431   -7.60157   14.21511
       H     9.97666   -2.48603    7.72176
       O     9.42077   -1.89468    8.28481
      H1     8.51908   -2.27075    8.22459
       H    12.35751   -1.80246   10.99100
       O    12.34558   -1.33276   10.06267
      H1    11.36329   -1.32373    9.83406
       H     6.44816   -2.28041    6.24113
       O     5.83646   -2.22525    5.51092
      H1     6.39348   -2.00764    4.72933
       H     2.45564   -3.29686   14.94377
       O     1.72656   -3.77782   15.31939
      H1     1.90313   -4.66253   14.94908
       H     5.90686   -1.06216   13.20427
       O     6.69875   -0.58277   13.55235
      H1     7.27515   -1.21110   13.92789
       H    11.11813    3.37479    8.66660
       O    11.06245    3.39961    9.62144
      H1    10.39328    2.72783    9.72237
       H    10.79052   -5.30140    6.70701
       O    10.53745   -6.17512    7.04782
      H1    10.63441   -6.04526    8.02514
       H     9.25620    0.50434   17.90024
       O     8.92901   -0.42579   17.72083
      H1     8.16765   -0.30457   17.19242
       H     6.79434   -6.48576   14.68234
       O     7.65155   -6.35193   15.12775
      H1     8.37001   -6.81214   14.61931
       H     6.04976   -2.85871    8.48512
       O     6.93449   -2.94487    8.04154
      H1     7.07922   -3.89367    7.87000
       H    12.16421   -4.10917   12.12469
       O    12.90719   -3.49647   11.93520
      H1    13.49421   -3.53925   12.62829
       H     4.99325    0.89946    8.33936
       O     4.45179    1.45263    7.76076
      H1     4.85479    2.25517    7.49033
       H     2.74452    1.94493   11.88049
       O     1.86810    2.02767   12.27442
      H1     1.75105    2.97749   12.25641
       H    12.43170    2.23281    9.70380
       O    13.07302    1.52242    9.71508
      H1    12.69795    0.71539   10.06851
       H     9.26193    0.69975   15.19220
       O     9.99629    0.59988   14.59267
      H1    10.56204    1.37881   14.72965
       H     8.14232    2.02368   10.02165
       O     8.92801    1.51818    9.90928
      H1     9.13746    1.14777   10.76414
       H     9.88340   -5.19992   12.12925
       O    10.82670   -5.28510   12.19701
      H1    10.95914   -6.01672   12.78185
       H     9.29793   -3.19710   14.04175
       O     9.97436   -2.48304   14.06819
      H1     9.96709   -2.09279   13.17936
       H    10.00865   -0.39105    6.52290
       O    10.27614    0.02921    5.72980
      H1    10.00049   -0.50778    5.00691
       H     6.66504    4.21884    9.92148
       O     6.91239    3.53408   10.55863
      H1     7.11678    4.04659   11.32194

