165
frame 4 | Written by MDAnalysis XYZWriter (release 2.4.3)
       H    -1.94081  -16.83517  -10.38801
       O    -2.83673  -16.45691  -10.26294
      H1    -2.73999  -15.51911  -10.13839
       H    -5.34334   -8.00318   -2.60298
       O    -4.73419   -8.21030   -1.87047
      H1    -4.57991   -7.39370   -1.36128
       H     1.74126  -12.07222   -6.45469
       O     1.53465  -12.63452   -7.19445
      H1     0.73929  -13.02863   -6.85917
       H    -0.58983   -8.09120   -2.59520
       O     0.04385   -8.63507   -3.01096
      H1    -0.34639   -8.98438   -3.81800
       H     0.41201   -6.82144   -3.69175
       O     0.84926   -5.95455   -3.95038
      H1     1.81980   -6.15956   -3.88721
       H    -6.70022  -10.24509  -10.81041
       O    -6.61860   -9.70696  -11.62568
      H1    -5.73273   -9.39809  -11.57051
       H    -2.69392   -5.79887   -6.59105
       O    -3.57908   -6.12105   -6.55430
      H1    -3.67383   -6.58006   -7.39289
       H     0.86440  -10.58904  -10.95521
       O     1.07585   -9.97887  -11.68622
      H1     0.31593   -9.93472  -12.26041
       H     3.08541  -10.69931   -4.37488
       O     2.17118  -10.36514   -4.54796
      H1     1.58286  -10.72467   -3.86791
       H    -0.36147   -5.46746   -6.84209
       O    -0.91360   -5.04281   -6.16199
      H1    -0.45032   -5.17572   -5.30729
       H     0.81226   -3.93299  -10.95256
       O     0.80161   -3.86674  -10.03156
      H1    -0.10448   -4.30792   -9.86576
       H    -0.15650   -6.66918  -10.81488
       O    -0.94958   -6.44404  -10.26762
      H1    -1.79686   -6.39940  -10.76052
       H    -0.55161   -3.36265   -7.08592
       O    -0.24604   -2.60833   -7.51782
      H1     0.45196   -2.98611   -8.11341
       H     3.36371  -10.39961   -8.92133
       O     3.43746   -9.55050   -8.48532
      H1     4.24089   -9.13359   -8.85338
       H     1.73433   -7.94504  -11.62169
       O     1.69051   -7.16348  -11.01649
      H1     2.22117   -7.44877  -10.24394
       H    -0.99041  -14.30648   -5.81079
       O    -0.57756  -13.37825   -5.65175
      H1    -1.27066  -12.84115   -6.10969
       H     0.14437  -12.79790   -4.05405
       O     0.64522  -12.33756   -3.38513
      H1     0.52773  -12.80319   -2.51097
       H     0.20410   -3.40537   -2.31442
       O    -0.36152   -4.20808   -2.42698
      H1     0.12418   -4.76178   -3.06037
       H    -3.68868  -11.62058   -3.38558
       O    -3.75859  -12.10226   -4.20246
      H1    -4.51780  -11.67499   -4.61793
       H    -3.67327   -9.45381  -12.45051
       O    -3.94194   -9.61034  -11.52844
      H1    -3.34068   -9.16043  -10.93746
       H     5.16602  -10.18386   -3.70244
       O     4.85923  -10.92144   -4.26513
      H1     4.83983  -11.75097   -3.79065
       H     2.77266  -12.36354   -8.59077
       O     3.59708  -12.16712   -9.14785
      H1     3.32717  -12.60004  -10.01163
       H     4.44262   -7.08313   -4.35246
       O     3.71090   -6.63802   -4.83519
      H1     3.39723   -7.25968   -5.46565
       H    -1.72508   -6.66979   -0.44698
       O    -1.28512   -7.54185   -0.64218
      H1    -0.53836   -7.60656   -0.03469
       H    -7.26039   -8.21584  -10.29001
       O    -7.06604   -7.61868   -9.52630
      H1    -6.20174   -7.24209   -9.63080
       H    -3.90484  -13.87219   -6.73838
       O    -4.08778  -14.81214   -6.55634
      H1    -4.30326  -14.85949   -5.61636
       H    -4.32118  -14.23322  -10.05342
       O    -3.46285  -13.81666   -9.78445
      H1    -3.69068  -13.18608   -9.04120
       H     2.68270   -8.89835   -7.20157
       O     2.17991   -8.22342   -6.69185
      H1     1.79573   -8.81305   -5.99275
       H     0.34206  -13.98948  -11.44211
       O     0.05374  -14.24514  -12.35471
      H1    -0.34884  -13.51302  -12.83957
       H    -7.08501   -6.27941   -4.20537
       O    -6.32809   -6.85595   -4.34962
      H1    -6.74336   -7.72501   -4.63310
       H    -1.04185  -11.76158  -10.39303
       O    -0.17399  -11.73780   -9.91774
      H1     0.24994  -12.61167   -9.80985
       H    -7.83057   -9.85865   -5.68814
       O    -7.21359   -9.70426   -4.95762
      H1    -7.44833  -10.32689   -4.22016
       H     0.91100   -9.56317   -1.74119
       O     1.24505  -10.18660   -1.01591
      H1     1.63976   -9.51406   -0.43848
       H    -4.39410   -5.89940   -9.38875
       O    -4.51258   -6.75209   -8.97780
      H1    -4.04170   -7.32511   -9.54647
       H    -2.59756  -15.51645   -6.61174
       O    -1.67521  -15.82373   -6.33486
      H1    -1.11286  -15.84444   -7.14019
       H    -2.75983  -11.54755   -7.56062
       O    -3.44986  -12.29352   -7.63803
      H1    -4.27023  -11.89998   -7.29929
       H    -0.59902  -11.16438   -8.08443
       O    -1.30875  -10.53926   -7.73034
      H1    -1.08652  -10.17049   -6.92055
       H    -3.04448  -11.23580  -11.20802
       O    -2.55057  -12.03209  -11.48159
      H1    -2.84970  -12.77276  -10.91593
       H    -4.26842  -13.73730   -3.94224
       O    -4.57440  -14.62180   -3.73012
      H1    -4.86742  -14.51912   -2.81057
       H    -3.73464   -5.34183  -11.30344
       O    -3.28780   -6.17648  -11.49426
      H1    -3.47373   -6.16096  -12.47687
       H     2.47710  -15.27882   -2.97861
       O     2.34258  -14.65954   -3.71908
      H1     1.65688  -14.11531   -3.46091
       H    -3.64767   -7.51337   -3.29281
       O    -3.04535   -7.39649   -4.04425
      H1    -3.58724   -6.89534   -4.71948
       H     1.23572  -15.86894   -7.33516
       O     0.55013  -15.61475   -7.99731
      H1     0.40513  -16.48571   -8.46487
       H     2.23540  -14.52651  -10.50694
       O     1.38897  -14.11534  -10.22304
      H1     1.10659  -14.58830   -9.38060
       H     3.75477  -13.91271   -8.04013
       O     3.97298  -14.82932   -8.05847
      H1     4.90105  -14.87435   -7.74498
       H     3.00584  -15.60833   -6.79780
       O     2.52988  -16.17522   -6.16891
      H1     2.46759  -15.72715   -5.28304
       H     1.13608   -6.93806   -7.66762
       O     0.64618   -6.24124   -7.98004
      H1     0.22752   -6.62528   -8.73984
       H    -6.07748  -10.48042   -6.28702
       O    -5.78925  -11.20192   -6.84801
      H1    -6.39619  -11.28469   -7.62659
       H    -1.91177   -7.96528   -9.29657
       O    -2.52567   -8.73573   -9.30028
      H1    -2.05025   -9.50140   -8.93057
       H    -7.61096  -11.94455   -9.15308
       O    -6.99472  -11.19378   -9.30108
      H1    -7.42630  -10.50225   -8.80722
       H    -2.11731  -10.03246   -4.42593
       O    -1.69344   -9.55303   -5.15737
      H1    -2.20328   -8.74155   -4.94172
       H     2.06457  -13.05577  -12.24717
       O     2.76399  -12.45486  -11.92389
      H1     2.45392  -11.50569  -12.02714
       H    -3.88903   -9.71926   -1.98280
       O    -3.48394  -10.63349   -2.04353
      H1    -2.64790  -10.65267   -1.58992
       H    -1.84396  -10.57438    0.05342
       O    -1.37649  -11.32028   -0.45944
      H1    -0.63865  -10.86273   -0.82756
       H    -4.81904   -4.85158   -6.74340
       O    -5.53766   -4.22645   -6.99398
      H1    -6.05530   -4.69818   -7.67574

