165
frame 11 | Written by MDAnalysis XYZWriter (release 2.4.3)
       H   -13.02573  -11.35076    9.05868
       O   -13.52313  -11.74721    8.31998
      H1   -13.91554  -10.97974    7.95677
       H   -14.02352  -10.72591   19.77718
       O   -14.39069  -11.29868   19.10163
      H1   -15.11311  -10.66193   18.88978
       H   -16.68894  -17.53628   15.34402
       O   -16.63713  -17.71453   14.38631
      H1   -16.30962  -18.64086   14.34406
       H   -12.89018  -12.01171   12.35513
       O   -12.90959  -12.91246   11.92830
      H1   -13.54750  -13.42246   12.37986
       H   -17.83397  -10.15370   11.93838
       O   -17.36139  -11.02513   11.92738
      H1   -18.05467  -11.69862   12.13702
       H   -12.32147   -8.46099   17.28530
       O   -13.20138   -8.39928   17.76258
      H1   -13.11975   -7.55335   18.20817
       H    -6.77057  -18.16515   18.79773
       O    -7.52011  -17.53009   19.09766
      H1    -7.64372  -16.89630   18.36778
       H   -13.56561   -8.81090   16.05632
       O   -13.82103   -9.44655   15.39930
      H1   -14.18648  -10.18834   15.86944
       H   -16.36803  -13.71385   18.21771
       O   -16.51738  -13.47615   17.28949
      H1   -15.70798  -12.95123   17.09380
       H   -19.65053  -15.85164   15.93887
       O   -19.25615  -16.53158   16.45927
      H1   -19.91108  -17.21150   16.50548
       H   -10.87205  -15.57782   19.25359
       O   -10.92600  -14.96610   18.43777
      H1   -10.70419  -14.12793   18.91298
       H   -17.68676  -17.95564    8.32435
       O   -17.39917  -18.85408    8.27304
      H1   -17.72971  -19.42582    8.97973
       H   -19.18926  -12.41757    8.26445
       O   -19.96790  -12.72945    7.81870
      H1   -19.84875  -13.57438    7.34181
       H   -16.12768  -17.30863   11.05560
       O   -16.89082  -17.17796   11.58361
      H1   -16.56010  -17.13271   12.55105
       H   -18.22858   -8.07348   10.83586
       O   -18.60422   -8.45756   11.64752
      H1   -19.51508   -8.59646   11.34839
       H    -8.91249  -15.22806   17.86049
       O    -7.90740  -15.34684   17.77624
      H1    -7.63088  -14.59877   17.28211
       H   -13.94810  -11.85843   17.55350
       O   -14.01522  -12.00130   16.57255
      H1   -13.35941  -12.75236   16.38338
       H   -16.91000  -15.53676    7.90668
       O   -17.72945  -16.02293    8.25222
      H1   -18.34469  -15.87454    7.54106
       H   -16.59197  -10.38468   13.76575
       O   -16.45490   -9.78001   14.52458
      H1   -15.54005   -9.56337   14.59671
       H    -8.08155  -12.71112   13.32726
       O    -8.75230  -13.30888   13.82228
      H1    -9.33895  -12.71486   14.31320
       H   -18.69288  -15.22736    9.50575
       O   -19.50780  -14.92975    9.99735
      H1   -20.07085  -14.59839    9.25267
       H   -16.94392   -6.99612   14.57248
       O   -17.19989   -6.73879   13.70805
      H1   -17.74557   -7.45488   13.35837
       H   -12.49557   -9.96664   14.26365
       O   -12.15764  -10.60650   13.60549
      H1   -11.54577  -10.07847   13.08696
       H   -11.74783  -13.82064   15.74468
       O   -12.40433  -14.21119   16.33432
      H1   -11.99896  -14.58718   17.10041
       H   -14.76853  -12.77541    9.08264
       O   -15.56157  -13.27982    9.11055
      H1   -15.70641  -13.57594    9.99412
       H   -14.42408  -10.75432   12.79471
       O   -14.74384  -10.32839   12.00644
      H1   -15.55171  -10.79956   11.79722
       H   -11.99081  -16.12136   10.85027
       O   -12.53004  -16.47986   11.60557
      H1   -12.15975  -16.07032   12.38196
       H    -7.87863  -16.42213   16.12041
       O    -7.92782  -16.73632   15.17277
      H1    -6.99475  -16.75822   14.87931
       H   -15.43552  -13.81769   13.23378
       O   -14.89519  -13.41837   13.89590
      H1   -14.78639  -14.09897   14.61106
       H   -13.22301  -18.00829    7.58602
       O   -13.49427  -17.36104    8.26029
      H1   -13.98012  -17.95100    8.93303
       H   -13.31571   -9.99134   10.96561
       O   -12.62260   -9.82609   10.33342
      H1   -12.59694   -8.85697   10.22100
       H   -16.50830  -18.49002   18.39142
       O   -16.61155  -19.32414   17.98967
      H1   -15.72731  -19.50939   17.70290
       H   -11.20494  -11.62278   14.61646
       O   -10.76555  -12.19227   15.23267
      H1   -10.69103  -11.76302   16.07158
       H   -10.18201  -14.62280   13.48202
       O   -10.67796  -15.41636   13.48411
      H1   -10.08769  -16.06712   14.04447
       H   -15.99822   -8.59461   18.84571
       O   -16.05083   -9.25138   18.10620
      H1   -15.12256   -9.24473   17.72825
       H   -15.61788   -6.53624   16.43376
       O   -16.34848   -7.21042   16.31683
      H1   -16.19789   -7.88521   16.99927
       H   -19.51650  -18.96761   14.86451
       O   -19.06087  -18.91885   13.99537
      H1   -18.21228  -18.50131   14.20891
       H   -10.31716  -17.41560   16.76977
       O   -10.21419  -18.13835   16.11663
      H1    -9.52826  -17.78553   15.50069
       H   -11.10570  -14.37414    9.56548
       O   -11.08608  -13.50695    9.93835
      H1   -11.78839  -13.46551   10.59168
       H   -18.66019   -5.54028   17.24223
       O   -18.90947   -6.09891   16.49539
      H1   -18.27344   -6.79901   16.56331
       H    -9.17173  -14.39485   10.92668
       O    -8.27984  -14.67570   11.00887
      H1    -7.98259  -14.33151   11.83068
       H   -13.05625  -17.55524   15.05974
       O   -12.60100  -18.35035   15.20548
      H1   -11.70537  -18.22993   15.49444
       H   -17.11171  -11.94630    9.22175
       O   -17.94783  -11.51610    9.01032
      H1   -18.21551  -11.14693    9.82388
       H   -15.64157  -18.53186    9.13862
       O   -15.04666  -18.60923    9.89397
      H1   -15.15792  -19.44498   10.32269
       H   -14.64658  -16.14812    8.09507
       O   -15.24920  -15.44722    7.68888
      H1   -15.01798  -14.65523    8.15409
       H   -16.47823  -15.13955   16.79171
       O   -16.59744  -16.10958   16.69592
      H1   -17.56042  -16.27940   16.74106
       H   -19.50567  -16.79793   10.21900
       O   -19.53437  -17.72583   10.46466
      H1   -18.74135  -17.93237   10.99837
       H   -18.38678  -11.78712   19.29874
       O   -18.90245  -12.16478   18.56201
      H1   -18.23812  -12.51916   17.96819
       H   -10.44479  -16.82163    9.77672
       O   -11.04212  -16.22434    9.24159
      H1   -11.68904  -16.72643    8.73184
       H   -18.56580  -10.02721   17.26112
       O   -18.64086   -9.51770   16.39978
      H1   -17.74319   -9.60754   15.97991
       H   -12.62907  -18.75669   13.35179
       O   -12.46504  -19.17540   12.45985
      H1   -12.37374  -18.39028   11.96278
       H   -10.03466  -10.43182   17.43685
       O    -9.98528  -11.37989   17.69005
      H1    -9.12943  -11.68035   17.31891
       H   -17.37558  -13.89308   11.37819
       O   -16.53800  -14.19796   11.64524
      H1   -16.79152  -15.11402   11.38086
       H   -13.60247  -15.48108   15.62647
       O   -14.21516  -16.06046   15.12589
      H1   -14.92785  -16.27092   15.76302
       H   -15.95445   -7.31881   12.41527
       O   -15.19723   -7.56497   11.87761
      H1   -14.98381   -8.44965   12.09505

