165
frame 10 | Written by MDAnalysis XYZWriter (release 2.4.3)
       H     2.87633   15.92508  -11.70056
       O     2.20539   15.40901  -11.17892
      H1     1.50344   16.07523  -10.98469
       H     8.80973    5.10586  -13.97918
       O     8.25163    4.93851  -13.24794
      H1     8.15982    5.76371  -12.76255
       H     6.63031    9.86380  -12.77899
       O     7.51538   10.13357  -12.40844
      H1     7.24656   10.47914  -11.47226
       H     9.25479   13.31579  -11.27726
       O     8.74647   13.55278  -12.03850
      H1     8.93036   12.98653  -12.81011
       H     3.32927   14.80008   -5.25236
       O     4.14767   15.20777   -4.92386
      H1     4.60290   15.56618   -5.69265
       H     5.42597   16.23432  -11.13703
       O     4.67601   16.55888  -11.70778
      H1     5.03665   17.19374  -12.31197
       H     0.62420   12.25643  -11.73535
       O    -0.34659   12.26578  -11.50938
      H1    -0.66258   11.37882  -11.40361
       H    13.34919   11.69299  -10.95822
       O    14.11381   12.04445  -11.44965
      H1    13.83542   12.92792  -11.65164
       H     9.26541   12.97452   -7.35559
       O    10.17175   13.33690   -7.29149
      H1    10.05692   14.20584   -6.93949
       H     2.42797   13.85564  -12.09963
       O     2.40153   12.91660  -12.28477
      H1     2.19421   12.74307  -13.23292
       H     7.92940   13.81015   -5.11666
       O     8.60594   13.99085   -4.40689
      H1     8.23077   14.67305   -3.83847
       H     5.13466   15.58060  -14.06731
       O     5.58535   14.79486  -14.38465
      H1     5.03224   14.54435  -15.12154
       H     4.24792    6.97905   -4.37678
       O     4.02036    7.63171   -5.02358
      H1     3.96292    7.20415   -5.89089
       H    10.40120   13.10446   -9.22638
       O    10.51127   12.89300  -10.14699
      H1     9.98094   12.13512  -10.30802
       H    11.57146   10.43135   -9.75002
       O    12.50499   10.62775   -9.68766
      H1    12.65184   11.13776   -8.92143
       H     8.77370   16.89556  -11.92321
       O     8.80386   16.34449  -12.72474
      H1     8.74268   15.48360  -12.37644
       H     1.26892    8.43369  -11.20511
       O     1.29132    8.60360  -12.19138
      H1     0.46999    8.19199  -12.49543
       H     3.39724    9.95463  -10.16283
       O     4.16347    9.67884  -10.68635
      H1     4.93922   10.21485  -10.35170
       H     9.85551   17.74453  -10.62758
       O     9.25373   18.41949  -10.95368
      H1     9.71532   19.16867  -11.33556
       H     6.47375    9.84946  -16.28272
       O     7.06405    9.49737  -15.57222
      H1     7.77306   10.13805  -15.55401
       H     7.77417   15.42175   -9.81806
       O     7.06384   15.25556  -10.45450
      H1     7.49522   14.66409  -11.05522
       H     5.73244   13.53883  -12.88047
       O     5.34936   13.04847  -12.11386
      H1     4.43341   13.30062  -12.18029
       H     6.97215   17.35700  -14.57565
       O     7.03108   16.98634  -15.47181
      H1     6.64779   16.14415  -15.36774
       H     1.41919    6.60991   -8.64668
       O     1.70258    7.55042   -8.78509
      H1     1.23612    8.12017   -8.14523
       H     3.60786    7.01435  -11.25961
       O     3.79301    6.47366  -12.05692
      H1     2.99375    6.38410  -12.56414
       H     1.93501   10.66887   -5.32471
       O     1.82915   11.18530   -6.13468
      H1     0.88739   11.34370   -5.96315
       H     4.35090   16.55772   -7.77938
       O     5.06772   16.07131   -7.44109
      H1     5.67957   16.82952   -7.10133
       H     7.87680    8.41319  -12.20186
       O     8.13314    7.48025  -12.36294
      H1     8.48569    7.47498  -13.29380
       H     9.87639   10.21958   -8.94962
       O     9.76671   10.21362   -9.88241
      H1     9.83877    9.28849  -10.17793
       H     9.32323   14.39922  -16.37439
       O     9.28717   13.40497  -16.48414
      H1     8.95280   13.00791  -15.62269
       H    13.32554   12.86953   -7.45461
       O    12.86106   12.04792   -7.22526
      H1    11.97102   12.43268   -6.98841
       H    11.02884   15.89098   -9.61166
       O    10.07295   16.19858   -9.61601
      H1     9.86614   16.57109   -8.74897
       H     5.00679   11.04529   -2.94728
       O     4.92121   10.90053   -3.87355
      H1     4.07783   10.43447   -4.06582
       H     6.31017   14.48085   -7.02941
       O     6.48283   13.87081   -6.25154
      H1     5.66630   13.84164   -5.79370
       H    11.25547   16.11922  -14.66929
       O    11.20029   16.47353  -13.82327
      H1    10.26885   16.40225  -13.54951
       H     3.89511   13.29419  -16.83286
       O     4.71575   12.86507  -16.53666
      H1     4.40908   12.12105  -15.99182
       H    10.17696    9.15141   -6.41936
       O    10.08941    9.47371   -7.35325
      H1     9.62716    8.80507   -7.92698
       H    11.96021   11.78209  -13.20578
       O    11.25079   12.39812  -13.04358
      H1    11.11347   12.36516  -12.09825
       H     8.13190    6.37101   -6.33438
       O     8.53311    5.71870   -6.91346
      H1     9.51585    5.67994   -6.76491
       H     8.61856    6.96043   -8.23556
       O     8.62784    7.80278   -8.66278
      H1     7.71312    8.13608   -8.46054
       H     6.49494    9.45694   -6.16164
       O     7.11263    9.92566   -5.57632
      H1     6.55504   10.34831   -4.94455
       H     9.68167    7.57533  -11.68951
       O    10.51197    7.64177  -11.09793
      H1    10.22947    6.98463  -10.43359
       H     8.25157    8.13818  -15.46282
       O     9.07059    7.65355  -15.20605
      H1     9.81224    8.18115  -15.60514
       H     6.87580   11.11402   -9.14335
       O     6.45498   11.07299  -10.01835
      H1     6.56002   11.93877  -10.35529
       H     0.65055   13.23402   -9.73701
       O     1.30117   13.56556   -9.08890
      H1     1.98156   13.87339   -9.76508
       H     5.49004    9.10263   -8.63852
       O     6.01848    8.61660   -7.95011
      H1     5.43511    7.92533   -7.70401
       H     6.29481    7.14789   -5.24497
       O     7.29578    7.12506   -5.04049
      H1     7.55754    8.02362   -5.03898
       H     4.39809   11.90540  -13.52200
       O     4.38361   11.25975  -14.24319
      H1     4.94810   10.58780  -13.94547
       H     7.45989   12.49628   -6.85271
       O     7.93199   11.95055   -7.46876
      H1     8.21825   11.16997   -6.99945
       H     5.12334    8.01693  -12.91840
       O     5.21622    8.93477  -13.04560
      H1     4.77258    9.31306  -12.24290
       H    11.80428   14.24896  -10.69162
       O    12.27694   15.06603  -10.85971
      H1    11.83655   15.45146  -11.60029
       H     3.22512    9.89579  -14.26445
       O     2.73183    9.08577  -14.46389
      H1     2.32090    8.80052  -13.65201
       H     2.10901   10.81568   -7.94219
       O     2.27493   10.82703   -8.88923
      H1     2.07634   11.73878   -9.06177
       H     4.08284    6.05304   -8.31663
       O     4.03987    6.79633   -7.75102
      H1     3.26068    7.28335   -8.07390
       H     9.77461   11.67517  -14.09125
       O     8.81325   11.59851  -14.37199
      H1     8.36780   11.07341  -13.68482

