165
frame 4 | Written by MDAnalysis XYZWriter (release 2.4.3)
       H    16.29141   -1.04432   12.89210
       O    16.09719   -1.66602   13.64086
      H1    15.58241   -1.05340   14.25362
       H    16.38526  -11.49213   14.76877
       O    16.28388  -12.27962   15.37420
      H1    15.67708  -12.00868   16.05026
       H    12.59431   -6.14337   11.05321
       O    11.64314   -6.24644   10.89426
      H1    11.39930   -5.32500   10.96114
       H    19.35335    0.56544    9.96939
       O    18.67723    0.96203   10.52004
      H1    19.04296    1.34301   11.29860
       H    13.07414   -5.04824    3.93908
       O    13.79696   -5.25087    4.67174
      H1    14.47967   -5.73427    4.20194
       H    18.74965   -4.67806   11.51413
       O    19.07064   -3.91686   11.07258
      H1    19.34082   -3.25133   11.69032
       H    15.18863   -6.53415   11.58860
       O    14.54290   -6.62366   10.85626
      H1    15.01898   -6.31771   10.08007
       H    18.07111  -10.24891    7.35749
       O    18.08816  -11.00382    7.88738
      H1    18.87662  -11.47884    7.71956
       H    12.39725  -11.03225   15.39545
       O    12.00377  -10.29551   14.88483
      H1    11.77825  -10.69417   14.03561
       H    13.54286   -9.09977    6.57406
       O    13.47611  -10.07841    6.70484
      H1    14.19882  -10.57485    6.29436
       H    13.08190   -3.98216    7.82823
       O    14.10909   -3.99258    7.89788
      H1    14.36224   -3.36142    7.17577
       H    19.03081  -12.89938   11.99400
       O    18.91241  -12.49822   11.05502
      H1    19.74168  -12.70104   10.54744
       H    13.44308  -13.70038    9.40477
       O    13.36432  -12.72579    9.24606
      H1    12.52790  -12.56748    8.66874
       H    18.52607   -4.08105    6.47584
       O    18.42740   -3.14313    6.50877
      H1    18.20047   -2.96031    7.43873
       H    14.46319   -1.34002    8.86257
       O    15.07063   -1.55948    9.58830
      H1    15.69905   -2.16214    9.11110
       H    11.72321   -7.72806   14.83560
       O    10.84797   -7.58507   15.21220
      H1    10.21946   -7.46994   14.43746
       H    12.59688   -4.24865   13.84453
       O    11.88635   -3.66237   13.48576
      H1    12.44284   -3.21659   12.84398
       H    16.56624   -6.82384    4.22974
       O    15.77911   -7.27309    4.61916
      H1    16.04093   -7.34720    5.51625
       H    14.28045   -3.68762    5.24785
       O    14.52817   -2.79607    5.57128
      H1    15.45149   -2.67830    5.31108
       H    19.14470   -1.15229   17.14599
       O    19.46193   -2.05965   17.35530
      H1    19.20801   -2.55581   16.56758
       H    14.42905   -8.70838    9.19602
       O    15.03014   -9.34777    8.82415
      H1    14.47241   -9.83619    8.17694
       H    14.28159   -8.12288   15.02774
       O    13.87425   -8.31139   14.17596
      H1    13.34159   -9.12855   14.31416
       H    17.13597   -0.92244    4.06029
       O    17.24725   -1.85169    4.25614
      H1    17.73360   -1.96837    5.05893
       H    19.56273  -11.77415   16.29484
       O    19.03138  -11.65605   17.09089
      H1    18.14330  -12.02378   16.91306
       H    17.25238    0.01061    7.21106
       O    16.91705    0.24731    8.09466
      H1    16.57257   -0.55472    8.52407
       H    17.00915   -3.97905    9.07090
       O    17.43066   -3.11950    9.02324
      H1    18.04523   -3.28924    9.76735
       H    11.72211  -11.56496   11.41765
       O    11.98846  -10.82285   12.03795
      H1    12.94664  -10.86058   12.15383
       H    16.00685   -0.60790   10.82155
       O    16.37588   -0.08799   11.51077
      H1    17.15516    0.39521   11.17321
       H    10.95166   -9.37406   11.31191
       O    10.30279   -8.72240   10.96702
      H1    10.78359   -7.84644   10.91016
       H    15.33273   -5.05458    8.42275
       O    16.06253   -5.56368    8.83311
      H1    16.44850   -6.21195    8.26831
       H    14.69390  -12.33484    8.06424
       O    15.24733  -12.36365    7.26676
      H1    16.16332  -12.22495    7.49573
       H    14.26883  -14.21863   14.25360
       O    13.63375  -13.75795   13.68807
      H1    14.18556  -12.98912   13.27723
       H    17.02730   -7.84872   19.43894
       O    17.34975   -8.57642   18.93200
      H1    17.76506   -9.22388   19.51024
       H    15.61334   -8.38419   17.37138
       O    14.77411   -8.35980   16.86818
      H1    14.11824   -8.52143   17.52852
       H    19.66149   -3.96893   14.68363
       O    18.99582   -3.53561   15.28293
      H1    18.76533   -2.78029   14.74267
       H    12.55580   -7.09004    6.89687
       O    13.06287   -7.56683    6.26366
      H1    13.37281   -6.88570    5.63196
       H    15.24347   -7.17508   13.46252
       O    15.92438   -6.51244   13.24417
      H1    15.50495   -5.70096   13.50241
       H    15.51235  -11.25375   11.57793
       O    14.67073  -11.71118   11.80130
      H1    14.37168  -12.01931   10.89630
       H    18.41479   -6.74893    2.94421
       O    18.13782   -6.17582    3.69596
      H1    18.17335   -5.32154    3.22518
       H    17.90273  -13.81504   10.26910
       O    17.30682  -14.50171   10.02488
      H1    17.19548  -15.11890   10.82623
       H    16.36436  -14.02326   14.71917
       O    16.55454  -14.86039   14.26304
      H1    17.17309  -15.41661   14.73487
       H    15.48373   -3.66525   17.48476
       O    15.27785   -4.59817   17.28133
      H1    16.12317   -5.05905   17.04959
       H    17.95551   -9.96884   14.30421
       O    17.95223  -10.77744   13.74987
      H1    18.08585  -10.36565   12.89811
       H    19.08743   -0.90115   11.17194
       O    19.43104   -1.40857   11.87514
      H1    19.19817   -1.00671   12.72370
       H    11.36428   -5.64427    7.67749
       O    11.29491   -6.52003    8.16509
      H1    11.32519   -6.18517    9.11938
       H    17.60894   -6.50640   15.75290
       O    17.67682   -5.71587   16.33697
      H1    18.13623   -5.00494   15.80441
       H    18.53792   -6.84315   11.32284
       O    18.54090   -6.57809   12.25249
      H1    17.62075   -6.40202   12.48968
       H    16.06985   -8.33918    7.44446
       O    16.63294   -7.66412    6.98690
      H1    17.47490   -8.08490    6.91740
       H    18.59018   -7.60170   14.12475
       O    18.30291   -8.19703   14.85120
      H1    19.13557   -8.34915   15.28386
       H    19.14876    0.38699   14.47246
       O    18.73805   -0.45996   14.26329
      H1    17.74677   -0.43753   14.33519
       H    14.66526   -4.58261   15.30787
       O    14.46699   -4.27770   14.42533
      H1    15.02601   -3.51416   14.23298
       H    12.49443   -2.26368   10.50564
       O    12.82957   -1.85310   11.30701
      H1    13.83691   -1.87094   11.25380
       H    17.43670  -10.99161   10.11166
       O    17.07189  -10.21456   10.65142
      H1    16.28022   -9.93873   10.21373
       H    18.74671   -8.32023    8.93971
       O    18.61284   -8.22285    9.89365
      H1    18.10059   -8.97579   10.28168
       H    11.28001   -8.81737    8.51159
       O    10.75434   -9.32341    7.86352
      H1    11.37843  -10.03438    7.69011

