165
frame 11 | Written by MDAnalysis XYZWriter (release 2.4.3)
       H    -5.27021    3.73740   -4.23939
       O    -5.65012    2.84337   -4.32714
      H1    -6.17468    2.75808   -5.16346
       H    -4.17505    6.37494   -8.42057
       O    -4.23080    5.65583   -7.78923
      H1    -5.09272    5.72163   -7.30367
       H    -9.39203    8.37449   -7.48524
       O    -8.73687    7.94028   -8.04398
      H1    -9.12806    7.05717   -8.18674
       H    -9.59764    5.23075   -7.01189
       O    -9.36424    5.40265   -7.96327
      H1    -8.93298    4.53337   -8.24488
       H    -7.17386    6.37572   -2.07648
       O    -6.29590    6.22873   -1.69194
      H1    -6.52179    5.58259   -1.02787
       H   -10.99162    4.10937   -5.19900
       O   -10.20146    4.72008   -5.03408
      H1   -10.64473    5.41617   -4.48610
       H    -7.28975    8.97682   -5.05387
       O    -6.65652    9.11903   -5.79320
      H1    -7.11246    8.85215   -6.61121
       H    -3.99441   -1.03691   -5.64785
       O    -3.09793   -0.73569   -5.66589
      H1    -2.92997   -0.46292   -4.72596
       H    -0.00715    8.70278   -6.37378
       O    -0.18507    8.14937   -7.12846
      H1    -0.49180    8.89799   -7.68570
       H     0.56654    5.11028   -7.96600
       O     1.43025    5.05091   -8.32666
      H1     1.18856    5.19842   -9.23348
       H     1.66136    1.49613   -5.18400
       O     1.38130    2.40201   -5.04877
      H1     0.57346    2.48863   -5.62264
       H    -3.95010    8.05595   -0.82296
       O    -3.65257    7.98755   -1.72755
      H1    -4.23842    7.33730   -2.08753
       H    -6.58332    5.70903   -5.80144
       O    -6.70217    5.32412   -6.67462
      H1    -7.44081    5.84898   -7.07724
       H    -3.57694    8.31140   -5.29342
       O    -4.00590    9.17691   -5.26083
      H1    -4.95570    9.11725   -5.31785
       H    -3.65753   10.00867   -3.40929
       O    -3.56058   10.84348   -2.91411
      H1    -3.90328   10.70657   -1.97829
       H    -0.29430    7.08255  -13.91238
       O    -0.61114    7.78785  -13.33201
      H1    -0.47119    7.48082  -12.40026
       H    -3.18529    7.93017  -12.69864
       O    -3.71057    7.26012  -12.27276
      H1    -4.43002    6.97101  -12.85396
       H    -4.09195    5.80633   -4.04593
       O    -4.65533    5.18752   -3.46154
      H1    -5.24139    5.67313   -2.88674
       H    -6.60177    6.78973  -13.85974
       O    -6.38703    6.03915  -13.24997
      H1    -5.76868    5.58660  -13.86175
       H    -6.72301    2.16102   -7.20153
       O    -7.13773    2.02047   -6.33611
      H1    -6.91399    1.10807   -6.01839
       H     0.78684    2.86725  -13.12992
       O     0.31603    3.66580  -13.06614
      H1    -0.56642    3.45658  -13.37047
       H    -5.77257    0.14764  -10.45889
       O    -6.01784   -0.76718  -10.43874
      H1    -6.95237   -0.73350  -10.20568
       H    -1.19277    2.26921   -8.22508
       O    -1.11093    1.74591   -9.00408
      H1    -1.60315    0.91424   -8.74291
       H    -6.21196    3.54237   -8.65248
       O    -5.44795    2.96764   -8.32536
      H1    -4.81308    3.60726   -7.93664
       H    -6.04470   10.69333   -9.56465
       O    -5.62070   11.33417   -9.00578
      H1    -5.20342   12.02851   -9.52748
       H     2.29414    7.01899   -8.36574
       O     2.20711    7.88880   -8.74964
      H1     1.37591    8.09711   -8.24864
       H    -7.57431    9.38897  -11.72026
       O    -7.88138    9.70618  -12.53000
      H1    -8.77652    9.38832  -12.66698
       H    -2.88968    2.17793   -3.07611
       O    -3.04702    1.85872   -3.95448
      H1    -3.96469    2.01571   -4.21790
       H    -3.62139    3.44632   -1.29332
       O    -2.65024    3.31488   -1.31748
      H1    -2.13270    4.05669   -1.61619
       H    -8.98424    2.84436  -10.19012
       O    -8.58433    2.97906   -9.30593
      H1    -8.85085    2.13820   -8.84976
       H    -1.64428    9.41521  -10.98330
       O    -2.20718   10.20806  -11.19798
      H1    -2.48300   10.55494  -10.31226
       H   -11.50877    6.19115  -10.09496
       O   -11.54929    5.25947   -9.80232
      H1   -10.89522    5.11827   -9.12056
       H     2.12761    5.30353  -11.49618
       O     1.31923    5.31924  -10.98772
      H1     0.63289    4.84988  -11.46093
       H    -2.47180   10.82807   -6.48866
       O    -1.64332   11.21735   -6.19642
      H1    -1.40268   11.87213   -6.90799
       H    -3.04981    6.26350   -5.91601
       O    -2.95373    6.78398   -5.12112
      H1    -2.03499    6.74960   -4.91388
       H    -8.61690    4.36371   -4.17137
       O    -8.04826    4.38828   -3.42095
      H1    -7.25451    3.93097   -3.69224
       H     0.80702    1.49838   -9.67247
       O     1.56456    1.10446  -10.13793
      H1     2.27290    1.76777  -10.22016
       H    -0.65520    6.94902  -10.37378
       O    -0.58782    7.95206  -10.30013
      H1     0.31588    8.17248  -10.60783
       H    -2.04949    4.52731  -10.71465
       O    -1.77694    5.28574  -10.19045
      H1    -2.54883    5.69710   -9.93654
       H    -4.20141   10.57487   -8.26419
       O    -3.49023    9.97560   -8.00614
      H1    -3.76440    9.65842   -7.13509
       H    -1.81296    1.64553  -12.21782
       O    -1.57302    1.10760  -13.00678
      H1    -0.97803    0.42498  -12.75937
       H    -1.96509    2.55119  -10.36777
       O    -2.41732    2.99053  -11.08713
      H1    -3.27349    2.54683  -11.10923
       H    -2.12639   -0.91154   -7.37143
       O    -1.88966   -0.95955   -8.33346
      H1    -2.59661   -1.45906   -8.77742
       H    -4.21229    7.59987  -10.57535
       O    -4.44230    7.74214   -9.68238
      H1    -3.93122    8.53283   -9.29586
       H    -7.03762   11.66545   -7.57517
       O    -7.69606   12.25196   -7.15149
      H1    -8.22865   12.53165   -7.92345
       H    -6.42001    8.30231   -9.87706
       O    -6.97780    9.10145   -9.77936
      H1    -7.59679    8.92023   -9.03821
       H    -0.76562    6.22409   -6.92872
       O    -1.19837    5.33649   -6.98285
      H1    -1.62764    5.28001   -7.85164
       H    -5.37470    2.31968   -9.88825
       O    -5.29405    2.00313  -10.77584
      H1    -5.88405    2.42896  -11.41476
       H    -9.74933    0.55209   -7.42101
       O    -8.91402    0.65727   -7.88345
      H1    -8.35325    1.27168   -7.33552
       H    -7.04257    2.80894  -13.29529
       O    -7.07740    3.16478  -12.40262
      H1    -6.99165    4.12672  -12.43303
       H    -0.52651    5.96371   -3.46284
       O    -0.21463    6.42158   -4.28197
      H1     0.03797    7.32254   -4.11050
       H     1.13803    9.32064   -4.46667
       O     0.22882    9.07176   -4.53945
      H1    -0.20223    9.71516   -3.95583
       H    -7.97879    9.51270   -2.30021
       O    -7.80752    8.89252   -3.06738
      H1    -8.63595    8.44690   -3.09350
       H    -5.76546    2.56898   -2.28828
       O    -5.52096    2.23898   -1.37277
      H1    -5.99337    2.85443   -0.84404
       H    -1.69014    2.59574   -5.28697
       O    -1.17036    2.80382   -6.07618
      H1    -1.13901    3.80404   -6.04556

