165
frame 9 | Written by MDAnalysis XYZWriter (release 2.4.3)
       H   -11.82197   10.17043    3.04288
       O   -12.55755   10.71560    2.88803
      H1   -12.19480   11.60562    2.91824
       H   -12.99147   17.37468   -0.56443
       O   -13.46842   18.02458    0.02694
      H1   -12.94396   18.83880   -0.07668
       H   -11.82931   15.74685   -2.08546
       O   -12.28368   15.87717   -1.24216
      H1   -11.85642   15.40267   -0.53815
       H   -12.25827    6.57246   -4.45001
       O   -11.37119    6.83153   -4.10209
      H1   -11.53994    6.85741   -3.10791
       H    -2.53013   12.68852    3.09237
       O    -2.82625   13.59586    3.09167
      H1    -3.77516   13.49490    2.84093
       H    -7.28366    5.26162   -3.74545
       O    -7.40903    5.22579   -2.75694
      H1    -7.58703    4.29883   -2.59581
       H    -7.07795    9.88883   -5.41369
       O    -6.90051    9.29662   -6.11111
      H1    -7.73694    8.88031   -6.27249
       H    -9.67014   11.43823   -7.80565
       O   -10.14401   10.59036   -7.65910
      H1   -10.25682   10.48182   -6.71462
       H   -13.20817    9.38801   -0.21950
       O   -12.72460    8.68661   -0.65909
      H1   -12.47583    8.15614    0.10969
       H   -15.30632    8.48607   -3.04768
       O   -14.47968    7.99924   -2.95965
      H1   -13.86276    8.46192   -2.42064
       H   -13.16376   15.39611   -3.40652
       O   -14.01388   14.94127   -3.54459
      H1   -14.72595   15.53264   -3.25997
       H    -4.01922    9.37169   -3.95871
       O    -3.67608    9.84095   -3.16261
      H1    -4.16975    9.45866   -2.47597
       H    -8.57815   12.28994   -4.03077
       O    -8.54752   13.28907   -4.00151
      H1    -7.96582   13.46366   -4.72333
       H    -9.31280   11.48742   -0.35784
       O    -8.47840   11.41184    0.01797
      H1    -7.98498   12.15093   -0.30850
       H   -11.10613    9.67529    6.36568
       O   -10.38074    9.27460    5.87198
      H1   -10.50672    9.43078    4.94344
       H   -12.81347   17.48656    1.82644
       O   -12.27547   17.64677    2.62620
      H1   -11.82636   16.82513    2.88342
       H   -11.27739   14.81733   -4.33530
       O   -11.16809   15.72294   -3.90111
      H1   -10.24765   15.96960   -4.14135
       H    -9.12479    6.04404    3.15952
       O    -9.08003    6.97288    2.78496
      H1    -8.10599    7.24302    2.67320
       H    -8.71806   12.24034    3.25369
       O    -8.34338   11.50876    2.78822
      H1    -8.54069   11.60912    1.86063
       H   -15.49637   13.29369    1.91692
       O   -15.09570   12.74863    2.58468
      H1   -14.74443   11.99669    2.12518
       H   -14.00115   13.62326   -2.22263
       O   -13.79232   12.87317   -1.65955
      H1   -14.53738   12.24999   -1.72089
       H    -9.78667   15.40457    4.02151
       O    -9.95646   16.33032    4.24748
      H1   -10.55656   16.22223    4.99240
       H    -5.95633    8.84754    1.81085
       O    -6.23634    8.07563    1.28066
      H1    -5.60768    8.13532    0.54987
       H    -7.05557   15.74873   -2.90012
       O    -6.44035   15.48841   -2.20134
      H1    -6.48220   14.51496   -2.13250
       H    -4.05629   11.63035   -3.38792
       O    -4.53441   12.44924   -3.60458
      H1    -4.67932   12.47084   -4.52261
       H    -8.93592   14.07504   -2.10188
       O    -9.54460   14.14109   -1.34950
      H1    -9.93424   13.29318   -1.25832
       H   -11.58134   10.94092   -2.87914
       O   -12.22474   11.27409   -3.48478
      H1   -12.92039   11.82106   -3.07539
       H   -14.36349    9.98109    1.25499
       O   -14.40733   10.87030    0.87858
      H1   -15.27184   11.00272    0.47841
       H    -8.66189   16.47312   -5.12734
       O    -8.57991   16.30104   -4.16590
      H1    -8.20420   17.14813   -3.88540
       H    -6.32728   13.07816    2.15163
       O    -5.51078   13.58681    1.86858
      H1    -5.76832   14.50747    1.93430
       H    -5.83880    7.98464    5.15016
       O    -6.65064    7.65943    4.63864
      H1    -7.34981    7.56239    5.34488
       H    -5.65244   10.59334    3.98871
       O    -5.92348   10.34100    3.11379
      H1    -6.79492   10.73000    2.96538
       H    -5.69572    9.63953   -0.95194
       O    -4.81973    9.61625   -0.65752
      H1    -4.73499   10.07773    0.14592
       H   -10.57760   13.52759    4.27589
       O    -9.89932   13.57849    3.49507
      H1   -10.44092   13.89419    2.77227
       H   -12.35463   13.25390    5.96225
       O   -11.49033   13.58324    5.69059
      H1   -10.92424   13.16967    6.42003
       H    -9.62500   13.45473   -8.41101
       O    -9.39930   13.18376   -7.54138
      H1   -10.10619   13.33572   -6.88257
       H    -9.29447    9.95430    3.15500
       O   -10.12602    9.43195    3.29686
      H1    -9.80516    8.50481    3.27107
       H    -5.93885   12.30899   -1.88285
       O    -6.39543   12.89824   -1.21124
      H1    -5.80958   13.06348   -0.48586
       H    -7.76823    7.23898   -0.09229
       O    -8.24233    7.11389   -0.89531
      H1    -7.81927    6.43939   -1.44500
       H   -11.44228    9.83734   -4.71539
       O   -10.73740    9.34871   -5.10407
      H1   -10.86159    8.37954   -4.84064
       H    -7.19744   16.26489    1.10562
       O    -6.28114   16.51397    1.37682
      H1    -6.02993   17.40283    1.18846
       H    -3.71499   17.19079   -1.22768
       O    -4.53405   17.62622   -1.54706
      H1    -5.27685   17.03774   -1.41478
       H    -6.15491   12.95392   -6.89768
       O    -6.85214   13.50213   -6.45076
      H1    -7.70047   13.42315   -6.95440
       H   -11.78832   11.25043    0.25306
       O   -11.34439   11.87432   -0.35355
      H1   -12.13334   12.24751   -0.82506
       H   -14.30702    7.59728    1.96100
       O   -14.91937    8.37833    1.92602
      H1   -15.50109    8.07745    1.20429
       H    -8.83342   15.52872   -0.00264
       O    -8.99200   15.82257    0.86953
      H1    -9.27726   16.75377    0.81396
       H   -15.11850    9.68587    5.00078
       O   -14.40287   10.34727    5.06923
      H1   -13.92869   10.35788    4.21728
       H    -7.68681   10.34290   -1.07716
       O    -7.21163    9.64743   -1.65887
      H1    -7.56905    8.81438   -1.42233
       H    -9.74693    8.45595   -2.18890
       O   -10.33675    9.20482   -2.00814
      H1   -11.16365    8.92211   -1.66033
       H   -12.13803    6.26434    1.75398
       O   -11.55415    6.81727    1.23188
      H1   -10.67668    6.73097    1.64979
       H   -10.18761    6.34629   -1.24791
       O   -10.89914    5.71422   -1.22321
      H1   -11.35833    6.00875   -0.36108
       H   -16.67524   10.79436   -1.10714
       O   -16.21947   11.59964   -1.32825
      H1   -16.78458   12.28302   -0.99641
       H    -8.11455   10.18890   -3.21560
       O    -8.22064   10.73030   -4.01486
      H1    -9.04093   10.40597   -4.43365
       H   -11.50946   12.57937   -4.44595
       O   -10.99768   13.22719   -4.99154
      H1   -10.10994   13.28902   -4.57235
       H   -11.11533   13.54302    0.92316
       O   -11.21717   14.44736    1.32043
      H1   -10.47900   14.95781    0.98161

