165
frame 1 | Written by MDAnalysis XYZWriter (release 2.4.3)
       H     8.30599   -0.08246   -0.22019
       O     7.75671   -0.82726   -0.44244
      H1     8.25952   -1.54456   -0.02288
       H     6.07847   -1.60007    3.75223
       O     5.57701   -1.36359    2.98916
      H1     5.95952   -0.54034    2.74403
       H     4.35122   -8.74843    3.81817
       O     5.07490   -8.54632    3.24469
      H1     4.65943   -8.12095    2.47615
       H     0.87421   -8.02587    1.51972
       O     0.73460   -8.12478    0.57092
      H1     1.23076   -7.46918    0.07918
       H     4.97350   -2.68678   -2.15522
       O     4.88933   -3.22932   -1.28393
      H1     5.21754   -4.06030   -1.54009
       H    10.72957   -1.47406   -0.34249
       O    11.27240   -1.23389   -1.08486
      H1    11.74608   -2.02030   -1.35236
       H    -0.46788   -5.93637   -1.00938
       O     0.40554   -5.93705   -1.43434
      H1     0.23335   -6.72461   -2.00982
       H     5.91429   -6.95085    3.84585
       O     6.23463   -6.06475    3.66165
      H1     5.41790   -5.45830    3.92748
       H     5.76571   -2.59937    1.91234
       O     5.85288   -3.30888    1.30219
      H1     5.65276   -2.87405    0.45648
       H     7.21892   -6.27977    5.08621
       O     7.76895   -6.84066    5.71954
      H1     7.39691   -7.73005    5.66392
       H     1.70756   -6.66613    3.29465
       O     1.45184   -7.58334    3.41931
      H1     0.59859   -7.63873    3.89557
       H     3.32540   -3.56662    7.80849
       O     4.00560   -4.16870    7.54194
      H1     3.63751   -5.08276    7.70966
       H     7.51399   -5.26646    2.82516
       O     8.29723   -4.85315    2.46878
      H1     7.97130   -4.14743    1.90619
       H     3.31214   -2.09059    4.43880
       O     2.55013   -1.54835    4.52486
      H1     2.94058   -0.62734    4.60050
       H     4.86442  -10.34208    0.86000
       O     5.84760  -10.42594    0.83778
      H1     6.25026   -9.79402    1.50512
       H     2.25383   -2.05595   -0.00226
       O     2.29102   -2.82802   -0.63439
      H1     3.23413   -2.87096   -1.04475
       H    -0.01458   -2.82505   -0.82398
       O    -0.72913   -2.88785   -1.44850
      H1    -0.42425   -3.49051   -2.19684
       H     3.88166   -4.27796    5.57334
       O     4.07806   -4.13020    4.63203
      H1     3.22003   -4.30876    4.11827
       H     9.25034   -0.64958    2.71126
       O     8.90897   -0.44711    3.58156
      H1     8.33139    0.35897    3.52855
       H     2.28832   -4.55806    2.35552
       O     1.75771   -4.62538    3.20661
      H1     0.87995   -4.22522    3.02586
       H     5.13666    2.98773    1.12467
       O     5.51455    2.22696    0.72554
      H1     6.04277    2.47334   -0.02658
       H     8.93203   -8.31799    0.89370
       O     8.67782   -9.22197    0.79910
      H1     8.39588   -9.38841   -0.12590
       H     8.93061   -4.82295   -0.45748
       O     8.53986   -4.28583   -1.14489
      H1     9.25473   -3.99026   -1.74150
       H     4.23754    2.18907   -2.57284
       O     4.30137    1.21213   -2.71123
      H1     3.82786    0.91225   -1.85799
       H     9.38213   -6.95959    5.08736
       O    10.34958   -6.94182    4.99215
      H1    10.57849   -7.66382    4.40594
       H     7.19256   -5.41270    8.37753
       O     8.10956   -5.66250    8.10416
      H1     7.96489   -6.03614    7.22169
       H    10.44251   -0.55890    1.46137
       O    10.06315   -1.42336    1.32655
      H1    10.64187   -2.07344    1.82620
       H     9.53521   -6.85483   -1.19996
       O     9.38478   -7.23299   -2.11146
      H1     9.99367   -7.99606   -2.29972
       H     0.84438   -1.31569    4.34992
       O    -0.03121   -0.90206    4.38208
      H1    -0.54334   -1.24265    3.64529
       H     7.05705    0.25450    6.09937
       O     7.02140    1.00454    6.72743
      H1     7.56669    0.91407    7.47599
       H     6.26908    1.63212    2.15337
       O     6.33521    1.40387    3.07498
      H1     6.90077    2.06177    3.51383
       H    12.62686   -4.00007    2.21049
       O    12.00427   -3.32585    2.51333
      H1    11.40261   -3.67601    3.18476
       H    11.42511    1.09161    2.30924
       O    10.58103    1.40714    1.98238
      H1    10.59328    2.39599    2.01762
       H     9.62630   -4.35647    3.70843
       O    10.30434   -4.08359    4.35036
      H1    10.72080   -4.96195    4.63228
       H     2.99952   -6.98763   -1.20462
       O     2.75822   -7.58992   -1.90671
      H1     2.74637   -6.99463   -2.64343
       H     6.26959    2.69858   -2.02081
       O     7.09276    2.89709   -1.58634
      H1     7.74347    2.21632   -1.77922
       H     2.74222   -7.96506    6.08146
       O     3.06684   -8.56894    5.42016
      H1     2.62630   -8.36570    4.57051
       H     6.63367   -5.66635   -2.37548
       O     6.58902   -4.93892   -3.00317
      H1     7.20724   -4.30966   -2.61958
       H     8.05930   -0.97230   -2.23942
       O     8.27503   -1.08880   -3.15723
      H1     9.08866   -0.59445   -3.40964
       H     2.11711   -2.17801    6.49427
       O     2.07745   -2.36690    7.47675
      H1     2.68530   -1.74864    7.96662
       H     7.79326   -2.24119    6.04348
       O     7.42654   -1.68135    5.35019
      H1     8.13299   -1.48013    4.64349
       H     9.56491   -3.96342   -3.76541
       O    10.04858   -3.33584   -3.16961
      H1     9.58467   -2.46003   -3.02010
       H     5.26706   -7.03935    0.09819
       O     4.52937   -7.04621    0.72760
      H1     4.29123   -6.13221    0.78235
       H     4.84031   -3.58330   -5.88182
       O     5.61798   -3.03753   -6.13919
      H1     5.84402   -2.43258   -5.42716
       H     2.85897   -4.22408    0.34015
       O     3.21915   -4.73442    1.07542
      H1     4.03809   -4.31028    1.41597
       H    10.40976   -6.41184    0.60611
       O     9.40788   -6.45193    0.44525
      H1     9.04912   -6.13450    1.32822
       H     8.68343   -4.40842    7.35988
       O     9.01987   -3.61547    6.82450
      H1     9.38638   -3.87223    6.00531
       H    10.98931   -0.42055    6.11835
       O    10.80973    0.17050    5.33284
      H1    10.13354   -0.25252    4.80895
       H     5.17927   -0.54610   -3.21188
       O     5.52691   -1.43323   -3.43039
      H1     6.48741   -1.20534   -3.13720
       H     3.66665    1.30649    4.83663
       O     3.55540    1.11993    3.84409
      H1     4.48505    1.24470    3.58182
       H     4.10255    1.16814    0.36655
       O     3.28733    0.87585   -0.06677
      H1     2.98335    0.20336    0.52752
       H     7.42022   -7.62139   -1.63658
       O     6.50081   -7.32365   -1.68831
      H1     5.88756   -8.05567   -1.91790
       H     7.96546   -5.07149   -4.53064
       O     8.85666   -5.42336   -4.48373
      H1     8.75265   -5.88079   -3.65325
       H     1.86761   -1.25177    2.57159
       O     1.86316   -0.93588    1.63772
      H1     0.98055   -0.61591    1.46589
       H     9.89677    1.62867   -1.31311
       O     9.39442    1.38581   -0.51394
      H1     9.92368    1.69060    0.19138

