165
frame 2 | Written by MDAnalysis XYZWriter (release 2.4.3)
       H    -7.07264    4.50861  -18.50858
       O    -6.31353    4.49940  -17.92965
      H1    -5.56764    4.09701  -18.38570
       H     3.02787    2.84829  -10.77265
       O     3.76840    2.20506  -10.84345
      H1     4.25173    2.43581  -10.02565
       H    -3.76492   -1.77808  -17.01127
       O    -2.98172   -2.28658  -16.88977
      H1    -2.87159   -2.48009  -15.88231
       H     0.17931    1.64992   -8.51656
       O     1.11583    1.70906   -8.82498
      H1     1.10320    1.91925   -9.74307
       H     6.67915    0.37705  -19.47001
       O     5.79705    0.06561  -19.72896
      H1     5.19280    0.47985  -19.05911
       H    -0.42002    5.59976  -13.82831
       O    -0.76660    4.75820  -14.14902
      H1    -1.09856    4.22568  -13.42415
       H    -4.23168    6.77227  -11.26434
       O    -4.79357    6.06117  -11.64589
      H1    -4.89501    6.15697  -12.59410
       H     4.00969    4.69632  -19.80298
       O     3.29168    4.65909  -19.11885
      H1     3.51309    5.49400  -18.64029
       H    -6.01058    6.59688  -17.57363
       O    -6.09256    7.52982  -17.68061
      H1    -5.69678    7.93274  -16.90823
       H    -6.33248    4.93629  -15.24465
       O    -5.81142    5.62775  -14.84931
      H1    -4.86120    5.45334  -15.00767
       H    -0.86238    6.97323  -17.45711
       O    -0.98522    7.08774  -16.51689
      H1    -1.42373    7.93021  -16.31383
       H     0.63340    9.16511  -18.76140
       O     0.10435    9.71472  -19.33702
      H1     0.60468    9.89925  -20.12619
       H     0.53447    7.45857   -9.90019
       O     0.09284    6.59661  -10.06192
      H1     0.82900    5.99978  -10.30765
       H     1.24817    2.75729  -14.52110
       O     1.93919    2.45036  -13.93587
      H1     1.56444    2.39009  -13.03439
       H     0.39436   10.67190  -15.73715
       O    -0.42766   10.39531  -15.24640
      H1    -1.12604   10.37734  -15.88562
       H     4.15972    8.54000  -12.29387
       O     4.97540    8.12580  -11.89366
      H1     5.58932    8.83077  -11.61389
       H     0.38755    3.69875  -18.06925
       O     0.35080    4.21116  -18.95928
      H1     1.30797    4.37603  -19.11369
       H    -0.06484    1.47157  -11.94700
       O     0.71714    2.05101  -11.69747
      H1     0.39368    2.95012  -11.49467
       H     6.54482    2.44565  -12.96163
       O     6.64204    1.70588  -13.57860
      H1     7.35027    1.14017  -13.31838
       H    -5.65712    2.08646  -19.32387
       O    -4.77373    2.26368  -19.00019
      H1    -4.85558    2.30198  -18.00442
       H     2.53938    4.77813   -9.96223
       O     2.08830    4.71314  -10.81687
      H1     2.67100    5.16043  -11.42612
       H     1.31091   -1.99410  -15.80240
       O     1.75331   -2.20656  -16.66068
      H1     2.32855   -1.41883  -16.74812
       H    -4.57741    8.54768  -14.75053
       O    -4.96742    9.09946  -15.44784
      H1    -5.86443    8.73725  -15.49213
       H     4.12013    7.85609  -17.51511
       O     3.86224    6.87765  -17.41271
      H1     2.88537    6.91880  -17.43195
       H     6.11622    4.54570  -12.06637
       O     5.92953    3.70915  -11.61389
      H1     5.04907    3.34415  -11.79454
       H    -3.79554    5.22904  -19.33112
       O    -3.49368    4.53068  -18.81181
      H1    -3.94413    3.71235  -19.14552
       H     0.32178    6.38446  -12.13480
       O     0.55004    6.87693  -12.86914
      H1     1.41053    6.50738  -13.16526
       H    -0.41182   -0.32128  -13.54953
       O    -1.03250    0.40003  -13.14634
      H1    -1.77131   -0.09997  -12.78377
       H     0.67154    7.97086  -16.64084
       O     1.46857    8.18105  -17.14349
      H1     1.97462    8.77106  -16.59269
       H    -4.99135   -1.08654  -18.97295
       O    -4.83023   -0.49921  -18.26637
      H1    -4.53655    0.30382  -18.66593
       H     3.46985    0.74533  -11.83567
       O     3.37687   -0.13057  -12.22760
      H1     3.67199   -0.02762  -13.14527
       H     5.86079   -0.46235  -16.63009
       O     6.25380   -1.13314  -16.04571
      H1     6.90272   -1.64462  -16.53329
       H     3.82537    9.76863  -15.97502
       O     3.01192   10.04498  -15.59445
      H1     3.10814    9.77271  -14.64968
       H    -2.36853    7.39003  -10.34336
       O    -3.03446    8.13460  -10.35111
      H1    -2.53209    8.85104  -10.72104
       H     5.10539    1.33946  -14.46055
       O     4.26004    0.99949  -14.72204
      H1     3.50874    1.49252  -14.46750
       H    -3.15896    3.17649  -10.96007
       O    -2.81803    3.86714  -11.59773
      H1    -3.47729    4.62648  -11.52047
       H    -0.43581    2.62267  -15.96213
       O     0.30333    3.13426  -16.25714
      H1     0.24442    4.00223  -15.77001
       H     1.12527   -2.36044  -13.77510
       O     0.44609   -1.84898  -14.25928
      H1    -0.34211   -2.47630  -14.21135
       H    -2.40413    6.04110  -16.08294
       O    -2.97322    5.37577  -15.63802
      H1    -2.35398    4.93191  -15.00922
       H    -6.98903    3.54187  -16.51780
       O    -7.23002    3.51663  -15.58733
      H1    -8.22732    3.63080  -15.53140
       H    -1.31910    0.35979  -16.10713
       O    -1.53443    1.23396  -15.63770
      H1    -1.44405    0.89445  -14.72933
       H    -2.99838    2.05885  -16.07935
       O    -3.80579    2.54444  -16.43567
      H1    -3.54810    3.47433  -16.44754
       H     0.11016   -1.16200  -17.33058
       O    -0.76536   -0.75114  -17.27222
      H1    -1.58375   -1.39784  -17.21213
       H    -1.61393    9.04498  -19.28891
       O    -2.49487    9.31182  -18.92493
      H1    -3.04448    8.65935  -19.38522
       H     7.15167    3.74444  -18.13300
       O     6.27916    3.38018  -18.45575
      H1     5.67319    4.09409  -18.15929
       H    -2.20837    6.20775  -18.88675
       O    -1.31027    6.44414  -19.18880
      H1    -0.77731    5.60664  -19.06878
       H    -2.39386    7.86860  -13.29923
       O    -3.08593    7.36722  -13.69485
      H1    -2.78790    6.61229  -14.19784
       H     5.67936    6.44856  -15.86761
       O     5.64599    5.62915  -15.37292
      H1     6.02319    5.97321  -14.54452
       H     7.52183    6.03230  -12.60077
       O     6.60357    6.03441  -12.81694
      H1     6.11765    6.66047  -12.32761
       H     4.55073    1.18409  -16.48849
       O     4.75900    1.19217  -17.45007
      H1     5.19952    2.02862  -17.57757
       H    -0.98903    9.86340  -13.43877
       O    -1.46218    9.69015  -12.53073
      H1    -1.25567   10.49417  -12.08634
       H     2.43811    9.83387  -11.68415
       O     2.44769    9.37359  -12.54000
      H1     1.81073    8.69810  -12.44490
       H    -6.68631    3.48193  -13.46951
       O    -6.20445    3.11816  -12.71132
      H1    -5.25292    3.18610  -12.89335
       H     2.79127    4.43539  -13.74840
       O     3.04522    5.39377  -13.63121
      H1     3.80762    5.51117  -14.23222
       H    -2.37637    9.32579  -17.16196
       O    -2.56923    9.36627  -16.21223
      H1    -3.49012    9.52926  -16.11695

