165
frame 1 | Written by MDAnalysis XYZWriter (release 2.4.3)
       H    -1.38935   -9.95078   -0.50711
       O    -0.81374  -10.68791   -0.70242
      H1    -0.52623  -11.19860    0.03874
       H    -5.73929   -7.96234   -2.63323
       O    -5.32398   -8.39131   -1.88249
      H1    -5.14897   -7.61155   -1.37547
       H   -10.30454  -16.75407   -3.08559
       O    -9.79082  -16.09313   -3.54021
      H1    -9.23254  -16.58027   -4.13379
       H     0.63256  -11.98115   -6.31925
       O    -0.22835  -12.33995   -6.50846
      H1    -0.66289  -12.74792   -5.70409
       H    -8.81526  -18.38227    1.32012
       O    -9.28236  -18.94049    0.69265
      H1   -10.20713  -18.81744    1.01832
       H    -0.00856  -16.29803    1.69115
       O     0.94914  -16.37683    1.87183
      H1     1.46401  -15.59035    1.67377
       H    -4.12108  -17.31127   -4.18453
       O    -3.30499  -16.84121   -4.14338
      H1    -3.01561  -16.66495   -5.06612
       H    -5.84409  -17.49162    6.68293
       O    -5.76379  -17.02407    5.83084
      H1    -6.04156  -17.66318    5.19552
       H    -9.87169  -17.25241    2.55791
       O    -9.10101  -17.61074    3.00365
      H1    -9.33857  -18.48430    3.20054
       H    -7.44021  -12.00438    5.43479
       O    -7.16587  -11.60574    4.58761
      H1    -7.86233  -11.74232    3.95435
       H    -9.31165  -14.95819   -6.62816
       O    -9.19620  -14.00844   -6.30780
      H1    -8.31890  -13.76317   -6.50500
       H    -5.89438  -20.06813   -1.69019
       O    -6.17342  -19.55224   -0.91765
      H1    -6.61519  -18.75566   -1.34915
       H    -2.35107  -14.58626   -4.19441
       O    -1.87547  -13.76382   -4.43275
      H1    -2.48905  -13.06097   -4.65756
       H    -8.46994  -18.48667   -5.68827
       O    -8.21737  -17.55885   -5.45394
      H1    -8.03729  -17.22027   -6.32795
       H     0.67964  -12.89408   -3.87358
       O     1.34313  -12.25091   -3.66682
      H1     0.86181  -11.62456   -3.12577
       H    -9.70944  -12.31331    3.93544
       O    -9.41235  -11.81721    3.15291
      H1    -9.00778  -12.42851    2.53454
       H   -11.25787  -12.38865   -0.09009
       O   -10.37101  -12.18067   -0.48923
      H1   -10.28704  -11.33720   -0.89859
       H    -6.05429  -15.39275   -6.59275
       O    -6.75469  -15.88996   -7.07380
      H1    -7.06842  -15.38719   -7.83971
       H    -3.10679  -10.94630   -4.52954
       O    -3.03547  -11.13019   -5.45307
      H1    -2.45791  -10.44506   -5.85035
       H    -9.19616  -18.82437   -1.53037
       O    -9.42375  -19.03812   -2.45698
      H1   -10.39347  -18.91273   -2.44273
       H    -3.85365  -17.31482    5.14436
       O    -2.90256  -17.39549    5.38186
      H1    -2.50485  -17.85816    4.66257
       H    -7.66882  -15.82783    3.12111
       O    -6.91007  -15.43988    2.65361
      H1    -7.15230  -15.62774    1.71123
       H    -5.36517  -11.84628    0.81857
       O    -5.74116  -11.84101    1.73908
      H1    -5.28122  -12.40804    2.34050
       H    -1.99446  -18.86126    2.37157
       O    -1.90853  -19.44306    3.15124
      H1    -0.97949  -19.29514    3.29723
       H     0.66647  -18.56492   -4.71454
       O     0.35145  -18.98104   -3.94914
      H1    -0.20025  -18.38962   -3.46283
       H    -9.29544  -14.78292   -2.24378
       O    -8.83951  -14.04605   -1.86838
      H1    -9.39548  -13.62825   -1.24839
       H    -4.51543  -13.98107   -6.20418
       O    -4.72407  -14.79919   -5.74320
      H1    -5.37810  -14.65449   -5.05748
       H    -5.61553  -15.20137   -0.71294
       O    -4.95465  -14.69976   -1.19857
      H1    -4.14259  -15.24292   -1.07432
       H    -5.67311  -18.93306   -3.67284
       O    -5.61678  -18.38940   -4.41878
      H1    -6.47822  -17.93973   -4.58663
       H    -2.77339  -15.31114    6.07607
       O    -3.07878  -14.46170    5.84458
      H1    -3.94890  -14.58617    5.41363
       H    -5.88152  -12.98689    4.27297
       O    -5.15339  -13.63868    4.02405
      H1    -5.74295  -14.26251    3.52032
       H    -8.48966   -8.90637   -1.11636
       O    -8.01263   -8.11385   -0.82339
      H1    -7.05508   -8.27416   -1.02455
       H    -8.49435  -10.96692   -5.28356
       O    -7.48502  -10.98791   -5.43312
      H1    -7.22310  -11.43136   -4.61946
       H    -9.15089  -15.79768    5.88418
       O    -8.59117  -15.17832    5.40788
      H1    -7.75338  -15.69126    5.29741
       H    -5.11009  -18.63873    0.31400
       O    -4.33676  -18.48807    0.92867
      H1    -4.59193  -18.00278    1.74723
       H    -1.39555  -14.58520   -1.57100
       O    -2.12379  -15.16907   -1.33268
      H1    -1.91636  -16.02513   -1.74006
       H    -3.05134  -17.12757   -7.39390
       O    -2.35374  -17.25182   -6.68267
      H1    -1.56254  -16.70888   -6.94304
       H    -1.57272  -11.22747    3.03491
       O    -2.37874  -11.62656    2.66814
      H1    -2.78517  -10.95494    2.11444
       H    -3.92378  -12.07630   -6.61925
       O    -4.56351  -12.55763   -7.21319
      H1    -5.22666  -11.86501   -7.25616
       H    -2.01052  -15.56803    0.69328
       O    -1.83649  -16.18594    1.44674
      H1    -1.68365  -15.59365    2.19043
       H    -6.77886  -14.23467   -3.14589
       O    -6.34772  -14.95531   -3.62145
      H1    -5.50246  -15.10559   -3.09965
       H    -8.76027  -10.96994   -2.41040
       O    -9.24092  -10.18267   -2.36319
      H1    -8.94223   -9.56443   -3.03808
       H    -3.72402  -16.23629    2.21558
       O    -4.31771  -16.58377    2.90153
      H1    -5.17136  -16.18593    2.66563
       H    -7.80233  -12.81260   -2.38014
       O    -7.26305  -12.20294   -2.95632
      H1    -6.54014  -12.04630   -2.34813
       H    -4.52314  -11.36759   -1.36982
       O    -5.13629  -11.88571   -0.82924
      H1    -4.83250  -12.78165   -0.93701
       H     2.62862  -15.73969   -1.08487
       O     2.09048  -14.91290   -1.08662
      H1     2.65936  -14.15152   -0.78755
       H    -7.25504  -16.52332   -0.73520
       O    -7.04521  -15.87723   -0.03315
      H1    -7.47191  -15.05110   -0.22693
       H    -2.22190  -17.58046   -3.05701
       O    -1.47286  -17.82095   -2.53040
      H1    -1.76185  -18.40429   -1.84638
       H    -7.41627  -12.23959    1.03280
       O    -8.04856  -12.94529    0.82713
      H1    -8.85680  -12.57496    0.40650
       H    -0.05308  -12.17269    1.91294
       O     0.29217  -12.32389    1.08038
      H1     1.16278  -12.03844    1.05811
       H    -1.92036  -13.33488    3.15369
       O    -1.69244  -14.21513    3.46883
      H1    -2.30289  -14.35749    4.23447
       H    -8.07064  -17.58395   -2.57618
       O    -7.22973  -17.21553   -2.28031
      H1    -7.01379  -16.49068   -2.94163
       H    -5.52776   -9.94433    2.05369
       O    -5.35468   -9.03201    2.10298
      H1    -5.43480   -8.71976    3.01293
       H    -4.63004  -16.71889   -9.32639
       O    -4.75246  -17.22458   -8.47325
      H1    -5.38776  -16.68360   -7.96326
       H    -4.02662   -9.98733   -2.56127
       O    -3.40609  -10.71088   -2.67285
      H1    -2.51054  -10.52928   -2.28633

