165
frame 10 | Written by MDAnalysis XYZWriter (release 2.4.3)
       H    17.72996   16.48144    3.36871
       O    18.08935   16.20712    2.52363
      H1    17.47411   15.47417    2.30711
       H    17.18650   14.80739   -4.00767
       O    16.20978   14.74336   -4.05654
      H1    16.06824   13.78215   -4.14531
       H    18.16143   16.73644   -7.23953
       O    18.92242   17.25355   -6.84074
      H1    19.21500   16.78831   -6.03718
       H    19.60737   16.70965  -11.24786
       O    19.10769   17.13382  -10.52642
      H1    19.87784   17.14082   -9.90613
       H    14.83550   15.15674    3.06477
       O    13.92139   15.30427    3.27003
      H1    13.99430   15.94197    3.92935
       H    16.15372   11.40381   -3.82191
       O    15.60675   11.96549   -4.43181
      H1    14.77348   12.07296   -4.00773
       H    18.66426   17.56490   -3.41576
       O    19.18157   16.77837   -3.67332
      H1    19.66076   16.44362   -2.90143
       H    16.35435   16.69320   -8.90709
       O    16.95821   16.10641   -8.41023
      H1    17.54718   15.68514   -9.08059
       H     9.26541   12.97452   -7.35559
       O    10.17175   13.33690   -7.29149
      H1    10.05692   14.20584   -6.93949
       H     7.92940   13.81015   -5.11666
       O     8.60594   13.99085   -4.40689
      H1     8.23077   14.67305   -3.83847
       H    18.83603   10.17894   -3.82940
       O    18.52973    9.96228   -2.95800
      H1    18.98683   10.64600   -2.45488
       H    12.69381   18.87125  -12.70256
       O    12.41292   18.22184  -12.06103
      H1    12.11639   17.55782  -12.68514
       H    16.40936   13.62571    3.47177
       O    16.54785   14.09612    2.62667
      H1    16.28407   13.51181    1.88612
       H    13.76005   18.40348   -0.67356
       O    14.63487   18.61656   -1.18321
      H1    14.64602   18.01529   -1.95498
       H    18.02003   10.08240   -8.34569
       O    18.63635    9.85514   -9.05633
      H1    18.20345    9.19634   -9.59029
       H    11.40349   12.32773   -3.30083
       O    10.45612   11.94721   -3.40574
      H1     9.90323   12.74129   -3.41573
       H    12.68046   18.03565   -8.81824
       O    12.56087   18.74222   -9.43566
      H1    12.31839   18.39748  -10.28869
       H    12.41826   18.36070    3.57890
       O    13.32361   18.18783    3.83800
      H1    13.90270   18.95216    3.71700
       H    18.22652   16.68158   -0.39089
       O    19.07893   17.12240   -0.30125
      H1    18.94141   18.04988   -0.58457
       H    17.36294   17.11039  -10.80421
       O    16.38094   17.08743  -10.91137
      H1    16.20336   16.84809  -11.78909
       H    10.87985   18.43287   -3.96191
       O    11.25321   18.32743   -4.83209
      H1    12.18455   18.48327   -4.92506
       H    17.71177   10.27422   -6.49399
       O    17.44514   11.12335   -6.97117
      H1    16.60416   11.30818   -6.61659
       H    19.29741   10.67551    0.41576
       O    19.48911    9.81843    0.75082
      H1    18.99576    9.21724    0.18219
       H    12.79942   12.83503   -1.96665
       O    13.02624   12.41162   -2.81846
      H1    13.50389   11.56546   -2.73945
       H     8.88658   14.65568   -0.39698
       O     8.91787   14.06264   -1.17086
      H1     9.36738   13.26951   -0.88955
       H    18.90604   20.11487   -5.84905
       O    18.08437   19.71425   -6.16733
      H1    18.30879   18.77810   -6.40642
       H    13.32554   12.86953   -7.45461
       O    12.86106   12.04792   -7.22526
      H1    11.97102   12.43268   -6.98841
       H    11.02884   15.89098   -9.61166
       O    10.07295   16.19858   -9.61601
      H1     9.86614   16.57109   -8.74897
       H    12.70233   15.37764    2.19863
       O    11.97216   15.59993    1.57737
      H1    12.18753   16.45742    1.19382
       H    12.57656   14.40462    0.37946
       O    12.74897   14.08404   -0.58259
      H1    12.03434   14.58259   -1.02334
       H    17.58084   17.90901    1.63256
       O    16.86376   18.39401    1.17179
      H1    16.03803   18.01521    1.38593
       H    15.73571   19.34505    6.20119
       O    16.70574   19.15747    6.39804
      H1    17.15111   19.95588    6.03732
       H    14.08551   18.88131   -9.21581
       O    15.07915   18.78451   -9.11850
      H1    15.39933   18.36229   -9.95671
       H     7.85395   17.16029   -2.45003
       O     7.88807   16.63357   -3.19205
      H1     7.42580   17.14209   -3.86078
       H    10.34337   17.63638   -1.94411
       O    10.39843   18.63912   -2.14661
      H1     9.59117   18.96446   -1.76278
       H    18.89490   13.52210  -10.50058
       O    18.91778   14.29018   -9.85932
      H1    19.51559   14.92499  -10.28452
       H    11.14472   15.07409   -3.48916
       O    11.03064   15.31515   -2.51165
      H1    10.16235   15.02145   -2.18490
       H    12.63217   18.90616    0.99207
       O    13.04599   18.05471    1.07356
      H1    13.32263   18.12473    1.95972
       H    15.31214   13.98601   -6.54201
       O    14.87184   14.31091   -7.33883
      H1    15.51570   14.96469   -7.62371
       H    13.31274   10.93406   -5.84097
       O    13.26385   10.06548   -5.40237
      H1    12.34368    9.66148   -5.57231
       H    10.40714   14.94267   -5.04763
       O    11.26839   15.40528   -5.16435
      H1    11.02264   16.30725   -4.77878
       H     8.05724   18.95379    0.13799
       O     7.62321   18.44936   -0.59008
      H1     7.77667   19.05684   -1.33793
       H    14.10091   19.92237   -5.77461
       O    14.06522   18.96270   -5.81145
      H1    14.55283   18.71182   -6.58330
       H    10.20586   17.75513   -6.43271
       O     9.70339   17.65823   -7.24508
      H1     8.76166   17.77309   -6.93412
       H    11.00018   12.31044    0.40533
       O    10.07304   12.04762    0.47438
      H1     9.90707   11.33451   -0.16948
       H    11.80428   14.24896  -10.69162
       O    12.27694   15.06603  -10.85971
      H1    11.83655   15.45146  -11.60029
       H    16.86115   10.38041   -1.51028
       O    16.01805   10.75157   -1.18727
      H1    15.51328    9.93687   -1.16912
       H    17.39783   16.23309    5.42444
       O    16.87486   16.75024    4.81049
      H1    16.83057   17.64736    5.13900
       H    14.52219   13.03743    0.27530
       O    15.28071   12.61358    0.67995
      H1    15.65123   11.99920    0.01651
       H    10.18947   15.31434    1.72125
       O     9.27080   15.15597    1.44592
      H1     8.98114   14.34593    1.86263
       H    17.53866   19.33556   -0.11317
       O    18.08445   19.65186   -0.85608
      H1    17.66782   19.38658   -1.67082
       H    16.49211   18.19328   -3.89190
       O    17.29523   18.76118   -3.80521
      H1    17.26796   19.28840   -4.60556
       H    14.34015   17.35386   -4.13761
       O    14.96331   17.19947   -3.40411
      H1    15.18120   16.24513   -3.38924
       H    18.28656   12.67299   -7.32016
       O    18.55429   13.59035   -7.32615
      H1    18.79533   13.78869   -8.28995
       H    13.38649   15.68547   -7.72414
       O    12.87514   16.50829   -7.66020
      H1    12.10533   16.26911   -7.11295

