165
frame 5 | Written by MDAnalysis XYZWriter (release 2.4.3)
       H     9.16579    5.46414  -10.31527
       O     9.86412    5.56120   -9.68342
      H1     9.50684    5.34421   -8.83395
       H     2.66739    3.36671  -10.68993
       O     3.54163    3.02774  -10.92953
      H1     3.90118    2.46858  -10.24347
       H    -0.07275    8.46065   -5.00028
       O    -0.26829    8.38704   -5.96287
      H1    -1.18629    8.69697   -6.09451
       H    -1.62247    3.99215   -8.25431
       O    -2.09710    4.68310   -8.74684
      H1    -1.79345    4.38176   -9.58801
       H    -0.33439    2.80872   -6.23732
       O     0.27631    2.98384   -6.95742
      H1    -0.07970    2.47922   -7.73153
       H     4.04077    5.08920   -5.42027
       O     3.91715    5.89090   -5.95852
      H1     3.71200    5.63372   -6.87021
       H     1.37067    8.20074   -9.62377
       O     0.98485    7.94006  -10.44889
      H1     0.99939    6.95381  -10.42572
       H     9.61391    1.81846   -7.57977
       O     8.70514    1.49590   -7.82395
      H1     8.39842    2.17584   -8.41435
       H     1.64079    2.76033  -14.72936
       O     0.88694    3.32313  -14.71705
      H1     0.18544    2.92198  -14.15807
       H     4.28276    4.00503   -3.66507
       O     4.21042    3.59421   -4.54633
      H1     3.52736    2.96172   -4.40453
       H     4.27080    8.66701  -11.78398
       O     5.09994    8.29527  -11.36703
      H1     5.53529    9.22589  -11.27478
       H     4.96145    3.47036   -7.71925
       O     4.14060    3.06104   -8.13163
      H1     3.74348    2.69021   -7.33383
       H     0.40892    3.84597  -10.30666
       O    -0.13018    3.00059  -10.16017
      H1    -0.45528    2.72198  -11.08708
       H     5.00496   -0.18593  -10.01197
       O     5.35422    0.45524  -10.67493
      H1     4.87864    0.28380  -11.48303
       H     5.61997    3.70291  -13.74803
       O     5.84720    2.98962  -14.35518
      H1     6.69382    2.58452  -14.14516
       H    -0.68202    5.93695   -8.15777
       O     0.20569    6.19601   -7.94463
      H1     0.01288    6.84038   -7.25702
       H     1.86934    4.23127   -3.24344
       O     1.87792    3.44584   -2.66931
      H1     2.41982    3.75455   -1.93267
       H     2.23715    5.60289  -10.55380
       O     1.42181    5.20874  -10.89235
      H1     1.55990    5.26454  -11.88034
       H     1.85522    7.05597   -1.04877
       O     2.54196    7.14171   -1.79238
      H1     2.06582    6.71593   -2.49878
       H    -1.35945   -0.13044   -5.08743
       O    -1.50195    0.77491   -5.41824
      H1    -1.27805    1.29806   -4.65476
       H     4.78675    5.55268  -12.79169
       O     5.04490    4.82225  -12.25983
      H1     4.35096    4.48189  -11.71696
       H     6.99973    5.93188  -10.16021
       O     7.16642    5.25175  -10.85933
      H1     6.32296    5.13454  -11.35516
       H     2.78676    5.93246  -13.87186
       O     1.98537    5.52186  -13.48563
      H1     1.78412    4.78391  -14.13427
       H     0.03797    1.76499  -13.12004
       O    -0.65615    2.39674  -12.80271
      H1    -1.48576    1.79537  -12.87257
       H    -0.21077   10.38618   -7.98692
       O    -0.65122   11.24199   -7.74399
      H1    -0.30286   11.81491   -8.46602
       H     8.27870    2.12839  -11.31884
       O     8.76295    2.10482  -12.21033
      H1     8.92743    3.03203  -12.29915
       H     4.18563    0.32626   -4.38383
       O     3.25283    0.60010   -4.54300
      H1     2.70506    0.16926   -3.86390
       H     0.33567   -0.98016  -10.38728
       O     1.23917   -0.74021  -10.61095
      H1     1.57832   -0.15740   -9.93794
       H    -0.78164    8.12588   -8.98237
       O    -1.67721    8.30780   -9.24155
      H1    -2.10573    8.81021   -8.47654
       H     5.51664    4.88971   -6.40584
       O     6.15440    4.43336   -6.89456
      H1     6.55357    3.77134   -6.29253
       H     4.49225    1.87928  -13.73910
       O     3.87838    1.46627  -13.16239
      H1     3.77404    2.04786  -12.38938
       H     9.04689    8.13346   -5.62933
       O     8.73954    8.48802   -6.48583
      H1     7.79055    8.56928   -6.32176
       H     6.48110    2.20010  -10.28708
       O     7.13769    2.79341   -9.89068
      H1     7.04831    3.68836  -10.30220
       H     9.00522    5.50287   -6.38563
       O     9.38491    4.92083   -7.04982
      H1    10.31067    4.77868   -6.83023
       H     6.73097    5.78757   -8.03313
       O     6.94262    6.66177   -8.35688
      H1     6.15475    7.13970   -8.09966
       H     5.55199    9.69910   -7.77658
       O     5.67471   10.62101   -7.57756
      H1     4.77844   10.77923   -7.23754
       H     2.41348    1.04469   -6.27026
       O     2.11700    1.10997   -7.18566
      H1     1.52311    1.85354   -7.13583
       H     1.92954    0.61485  -13.54569
       O     1.08669    0.54719  -13.97299
      H1     0.66263   -0.17915  -13.51869
       H     2.52023    5.94139   -4.67360
       O     1.80624    5.79504   -4.05848
      H1     1.03265    6.22404   -4.41443
       H     4.35206    8.17570   -9.34309
       O     4.44655    7.75488   -8.49118
      H1     3.78663    7.05793   -8.52811
       H     5.40724    7.92718   -5.83336
       O     6.15335    8.20259   -5.32399
      H1     5.83204    9.10820   -4.93086
       H     4.35048    5.54106   -1.29244
       O     4.91137    5.16341   -1.95336
      H1     5.59622    5.83137   -2.18860
       H     6.17935    7.58983   -2.30379
       O     6.64361    7.07952   -2.95440
      H1     6.38727    7.46802   -3.82400
       H     7.44122    6.73706  -13.32023
       O     6.99372    7.61893  -13.10779
      H1     6.30696    7.49075  -12.42015
       H    -1.96171    8.21327  -12.66704
       O    -1.05033    8.08337  -12.41842
      H1    -1.05221    8.05941  -11.49076
       H    -3.61542    3.92334   -8.28626
       O    -4.27964    3.52606   -7.73436
      H1    -5.03447    3.41287   -8.33186
       H     8.11523    2.00390   -6.37017
       O     7.86424    2.59126   -5.59094
      H1     8.50818    3.29711   -5.53863
       H     2.26129    9.98214  -12.38226
       O     2.68791    9.12227  -12.34144
      H1     2.06621    8.58282  -11.83479
       H     1.20163    9.03652   -7.24527
       O     1.33761    9.38286   -8.12993
      H1     2.00349   10.08169   -7.94974
       H     3.01730    4.59619   -8.39044
       O     2.78733    5.53248   -8.42510
      H1     1.86120    5.57836   -8.13398
       H     4.57183    6.96405  -14.95249
       O     4.19657    7.10920  -14.05489
      H1     4.62398    7.92242  -13.73090
       H    -2.66352    2.95955   -4.22656
       O    -2.24232    3.67280   -4.74370
      H1    -1.76185    4.23732   -4.14157
       H     4.08432   -0.94554   -7.40764
       O     3.83171   -0.71168   -8.31550
      H1     3.21674    0.10384   -8.19108
       H    -1.85000    0.93257   -7.44700
       O    -1.94139    1.19414   -8.39076
      H1    -2.84745    1.53781   -8.43364
       H     2.67268   -2.18329   -8.99812
       O     2.34048   -3.07071   -8.88337
      H1     1.77486   -3.37679   -9.58647

