165
frame 4 | Written by MDAnalysis XYZWriter (release 2.4.3)
       H   -15.49607   11.43153    2.42169
       O   -16.35019   11.79170    2.06385
      H1   -16.14614   12.75527    2.03487
       H   -16.17373   11.57000    0.21560
       O   -16.32671   11.44878   -0.71672
      H1   -16.46314   12.29427   -1.09284
       H   -14.02493   18.28140    0.84043
       O   -14.57582   18.85180    0.30070
      H1   -13.99947   19.58333    0.05273
       H   -11.61033   17.39096   -0.84264
       O   -11.62135   16.98699    0.02649
      H1   -10.89228   16.33000    0.12055
       H    -7.65885   16.20138    6.24443
       O    -8.15681   15.60703    5.60633
      H1    -7.52772   15.26883    5.01560
       H   -13.41901   20.09052   -5.03005
       O   -12.54047   19.95192   -4.67667
      H1   -12.59584   19.20441   -4.07140
       H   -13.15637   16.18557    0.30141
       O   -13.85235   15.49939    0.36025
      H1   -14.44884   15.79305   -0.33876
       H   -18.80628   17.29542   -6.30662
       O   -18.66979   18.23860   -6.39412
      H1   -19.47552   18.68393   -5.91568
       H   -14.90208   16.30752    9.08919
       O   -14.15705   16.72922    9.60419
      H1   -13.85749   16.05648   10.22859
       H    -8.85632   10.90788    0.02472
       O    -9.76226   11.26711    0.12574
      H1   -10.45135   10.56542    0.06469
       H   -13.64109   18.53087    3.38016
       O   -14.19640   18.87194    4.09178
      H1   -15.01265   18.32774    3.99374
       H   -19.10146   17.08150    2.52195
       O   -18.32333   17.67652    2.45314
      H1   -18.61751   18.48496    2.87241
       H    -8.96381   17.85475    4.78355
       O    -8.40160   18.61546    5.14971
      H1    -7.61272   18.56512    4.66748
       H   -13.02229   13.58678   -5.41949
       O   -13.49650   13.88538   -6.20678
      H1   -12.80444   14.15816   -6.86662
       H   -11.49408   17.32887    1.90088
       O   -11.71287   17.90383    2.62299
      H1   -11.54227   17.32265    3.38141
       H   -12.74207   16.89691   -3.62154
       O   -12.33023   17.62252   -3.13129
      H1   -11.40109   17.53558   -3.26071
       H   -15.42039   16.89446   -2.52529
       O   -15.62856   16.31704   -1.76720
      H1   -16.28354   15.66525   -2.07802
       H   -16.14000   16.80089    6.92662
       O   -16.34441   17.60489    6.41246
      H1   -16.33422   17.38577    5.44069
       H   -15.36919   15.06997    1.40140
       O   -16.10208   14.62820    1.89942
      H1   -16.97672   14.97491    1.59792
       H    -8.78758   12.37195    2.71112
       O    -8.38798   11.65710    2.24547
      H1    -9.12591   11.50049    1.56496
       H   -17.98856   17.82872    0.72542
       O   -18.00535   17.99052   -0.20474
      H1   -17.21795   17.54234   -0.60878
       H   -12.85956   11.73179    1.76343
       O   -13.47068   11.03451    2.03125
      H1   -13.78799   10.53211    1.25590
       H   -14.90201   13.03287   -1.76951
       O   -14.02879   12.79710   -2.12150
      H1   -13.59867   12.69503   -1.27210
       H   -12.27516   18.50273    6.76879
       O   -12.28332   19.22085    6.11562
      H1   -13.03024   19.01647    5.48151
       H   -15.03626   14.93802    7.16814
       O   -15.67980   15.31116    7.79737
      H1   -16.13726   14.57648    8.22351
       H   -10.42758   17.52444   -6.93242
       O   -11.28790   17.36120   -7.30891
      H1   -11.89976   17.32561   -6.55479
       H   -10.03955   16.10458    4.88966
       O   -10.91880   16.50951    4.86623
      H1   -11.14465   16.88784    5.72758
       H   -14.42388   11.13457   -2.64110
       O   -14.71272   10.26679   -2.99761
      H1   -15.49438   10.44112   -3.51226
       H    -9.76785   18.51021   -5.39961
       O    -9.58508   17.63235   -5.19158
      H1    -8.62639   17.47171   -5.31948
       H    -7.60557   16.32961   -2.00934
       O    -6.72681   16.37012   -1.53642
      H1    -6.37581   15.49052   -1.25152
       H   -10.07089   12.53888   -0.99878
       O   -10.50205   13.36811   -1.34193
      H1   -10.08035   13.58949   -2.20258
       H   -12.01605   11.96254   -4.44981
       O   -11.83913   12.87838   -4.13129
      H1   -12.14313   12.95331   -3.21196
       H   -14.21966    8.68620    0.27391
       O   -14.00937    9.50773   -0.19958
      H1   -14.69665    9.75800   -0.75596
       H    -9.41716   17.83433   -3.34670
       O    -9.46659   17.95848   -2.39627
      H1    -9.65002   18.92029   -2.36349
       H   -10.65893   15.81452    7.79573
       O    -9.99048   15.08283    7.92208
      H1    -9.47105   14.99722    7.15970
       H   -16.87815   17.15957    3.30192
       O   -16.02386   17.12647    3.77483
      H1   -15.75081   16.24867    3.47922
       H   -17.65750   11.11829    3.18604
       O   -17.98890   10.79567    4.02421
      H1   -18.63287   10.12551    3.78828
       H   -10.48305   13.76079    3.73177
       O    -9.69160   14.11652    3.31981
      H1   -10.04474   14.38909    2.44052
       H   -17.84767   13.96758   -1.68928
       O   -17.01099   13.98631   -2.26102
      H1   -17.17944   13.38909   -3.10111
       H   -13.84652   17.17086   -6.99016
       O   -13.55987   16.79132   -6.17111
      H1   -13.71989   15.84135   -6.27582
       H   -11.94538   11.58723    4.38911
       O   -11.64207   12.44823    4.67461
      H1   -11.04697   12.33669    5.38727
       H   -18.79140   13.73686    8.43771
       O   -18.17936   13.84142    7.74611
      H1   -18.36349   14.69617    7.31744
       H   -19.36464   15.94900   -5.13351
       O   -19.36351   15.52123   -6.06352
      H1   -18.44892   15.33911   -6.33351
       H   -12.67646   16.99410    8.39487
       O   -12.00329   17.00217    7.73863
      H1   -11.34528   17.67351    7.97410
       H   -16.84270   18.22365   -5.32315
       O   -16.02133   18.28822   -4.85281
      H1   -15.52777   17.65969   -5.33885
       H    -6.47147   17.60805    1.25226
       O    -5.53693   17.83227    1.61075
      H1    -5.11091   18.55282    1.08898
       H    -9.49268   18.43295    8.89257
       O    -9.74417   18.90084    8.01633
      H1    -8.89844   19.38375    7.78250
       H   -11.85407   13.26330   -0.31222
       O   -12.62432   13.11317    0.26210
      H1   -13.17593   13.92270    0.32857
       H   -16.59256   11.22806    4.98121
       O   -15.95351   11.64436    5.55689
      H1   -15.14648   11.09953    5.59324
       H    -7.43978   17.02515   -0.19205
       O    -7.95451   17.22428    0.64917
      H1    -8.39690   18.05948    0.45194
       H   -13.14176   13.49610    5.82666
       O   -13.95588   13.68308    6.40649
      H1   -14.64012   13.24818    5.87624
       H   -18.01647   16.76593    6.35925
       O   -18.73695   16.17276    6.41528
      H1   -19.31407   16.52744    7.11158
       H   -18.56988   16.07872   -0.07958
       O   -18.58680   15.12503    0.06598
      H1   -19.35177   14.97880    0.58507
       H   -10.52400   13.70683   -4.27920
       O    -9.80819   14.41323   -4.28822
      H1    -8.99537   13.95411   -4.51675
       H    -9.94669   14.63138    0.01135
       O    -9.68988   15.14200    0.73897
      H1    -9.13906   15.89138    0.45802

