165
frame 0 | Written by MDAnalysis XYZWriter (release 2.4.3)
       H    -7.41606    6.27551  -17.85619
       O    -6.70459    6.19357  -17.19295
      H1    -5.84967    6.16890  -17.73150
       H    -7.39464   -8.69981  -16.54436
       O    -7.44619   -9.49237  -17.10123
      H1    -7.50155   -9.28217  -18.03562
       H    -9.55817   -1.87240  -10.05523
       O   -10.42376   -1.45499  -10.10274
      H1   -10.75198   -1.40253  -11.01585
       H    -9.27032   -4.90428  -16.13225
       O    -9.67784   -5.74857  -15.75865
      H1   -10.05410   -6.13720  -16.57285
       H   -14.81701   -0.64983  -13.95566
       O   -14.57357    0.19152  -13.49340
      H1   -13.87630    0.64351  -14.04892
       H    -7.34822   -3.17396  -16.59560
       O    -8.26755   -3.51755  -16.86942
      H1    -8.87137   -2.82512  -16.60224
       H    -4.55515   -2.51455  -15.40142
       O    -3.70263   -2.99795  -15.70190
      H1    -3.26640   -3.04262  -14.85025
       H   -12.14210    1.15726  -15.04662
       O   -13.03578    1.46370  -15.07025
      H1   -13.16666    2.42741  -14.86732
       H   -15.11037   -0.02268  -17.12818
       O   -14.19845   -0.46574  -17.06861
      H1   -13.63317    0.15344  -16.63031
       H   -13.02839    4.93046  -18.20327
       O   -13.45796    4.36157  -18.84645
      H1   -13.28815    3.44524  -18.57499
       H   -11.09754   -5.47867  -18.24813
       O   -11.04102   -6.43415  -18.00453
      H1   -11.06439   -6.95522  -18.87354
       H   -15.73432   -6.62969  -17.51190
       O   -16.74803   -6.62208  -17.45800
      H1   -17.01367   -7.15797  -18.21334
       H    -5.46518    4.09992  -14.72051
       O    -5.38628    5.00604  -14.48720
      H1    -4.87620    5.41516  -15.24994
       H   -12.64960  -10.43489  -16.89672
       O   -12.42372   -9.49220  -16.89258
      H1   -11.52197   -9.38879  -16.52810
       H   -12.78716   -0.47779  -12.30445
       O   -11.88007   -0.64020  -12.57320
      H1   -11.72177   -0.04385  -13.33360
       H   -12.25954   -6.10441  -13.77433
       O   -11.92679   -5.26005  -14.11870
      H1   -11.18589   -5.51863  -14.68227
       H    -7.91378   -3.08579  -18.67470
       O    -7.71316   -2.76590  -19.54441
      H1    -7.66170   -3.48702  -20.20858
       H    -5.14267    1.46294  -18.43184
       O    -5.10795    2.47990  -18.44873
      H1    -5.78545    2.79837  -17.82609
       H   -13.40033    1.17541  -19.94897
       O   -14.09065    0.53245  -19.92012
      H1   -14.00716    0.04551  -19.10122
       H   -14.96111   -5.59032  -15.75040
       O   -15.52802   -5.28641  -15.06091
      H1   -15.71564   -6.10241  -14.53796
       H   -11.24864   -2.11642  -13.08108
       O   -10.78148   -2.90664  -13.40928
      H1   -11.36759   -3.69126  -13.33780
       H   -13.84562   -3.49723  -17.31915
       O   -14.35039   -3.76355  -18.09472
      H1   -15.18273   -3.31185  -18.13991
       H    -7.83597   -0.47764  -12.82883
       O    -7.61443   -1.28143  -13.41739
      H1    -8.44243   -1.63507  -13.70958
       H    -3.27266   -5.90085  -17.31334
       O    -4.02874   -5.36850  -17.18957
      H1    -3.75525   -4.57462  -16.68356
       H    -9.61828   -1.77559  -19.49236
       O   -10.29644   -1.22729  -19.07173
      H1   -11.03813   -1.40300  -19.67439
       H   -10.05314    3.90644  -15.75154
       O    -9.66299    3.22490  -15.13463
      H1    -9.12632    3.68274  -14.42096
       H    -6.37555   -1.11372  -19.03916
       O    -5.82807   -0.47342  -18.58844
      H1    -4.93288   -0.56050  -19.01495
       H    -6.60237   -6.55864  -17.15682
       O    -7.05235   -6.83446  -16.35440
      H1    -7.83549   -6.22314  -16.21393
       H   -16.67804    0.97277  -17.88435
       O   -16.85130   -0.00671  -17.64369
      H1   -16.85870   -0.44555  -18.49551
       H   -14.07814   -5.31646  -17.52894
       O   -13.94830   -6.20682  -17.03247
      H1   -13.02499   -6.48979  -17.14710
       H    -9.69359    0.38720  -18.51693
       O    -9.35034    1.08877  -17.93152
      H1    -8.68205    1.53454  -18.48850
       H    -6.03232   -0.92233  -16.45025
       O    -6.28272   -1.69114  -15.88530
      H1    -6.58092   -1.19580  -15.05868
       H    -8.96826    6.99476  -17.95981
       O    -9.15349    6.25096  -18.54058
      H1    -9.76589    5.69972  -18.04742
       H   -13.79974    4.59202  -14.31132
       O   -13.01250    4.08610  -14.49516
      H1   -12.49697    4.06294  -13.65988
       H    -3.07629    0.33508  -19.41949
       O    -3.24679   -0.61914  -19.26033
      H1    -2.58806   -0.97231  -18.62051
       H   -14.85681   -1.49573  -15.93472
       O   -15.05548   -2.13288  -15.19493
      H1   -15.35669   -2.97877  -15.52944
       H    -3.12264    2.48852  -18.62176
       O    -2.46742    2.11497  -19.19001
      H1    -1.65005    2.40047  -18.80854
       H   -17.88849   -3.37897  -18.21699
       O   -16.96724   -3.74714  -18.14035
      H1   -16.99579   -4.69568  -18.18781
       H    -7.47814    4.53325  -16.87803
       O    -7.54121    3.56927  -16.92063
      H1    -8.27801    3.39358  -16.26076
       H    -2.78507    1.19614  -15.81257
       O    -3.58498    1.71519  -15.73605
      H1    -3.93724    1.62313  -16.62082
       H    -1.73092   -2.79255  -17.86230
       O    -1.73368   -1.86289  -17.52592
      H1    -2.44184   -1.89982  -16.81965
       H   -13.55267   -2.82781  -15.56260
       O   -12.82306   -3.33942  -15.84866
      H1   -12.72641   -4.11126  -15.24546
       H   -10.40646   -1.50412  -17.19963
       O   -10.35702   -1.86635  -16.25815
      H1   -11.14635   -2.42435  -16.11834
       H   -12.14745    2.02270  -16.95401
       O   -11.83617    2.35892  -17.78526
      H1   -10.88922    2.10764  -17.71828
       H    -4.64969   -6.43767  -15.34713
       O    -4.74069   -6.91537  -14.48767
      H1    -5.68367   -6.89654  -14.34628
       H   -14.58098   -9.68464  -18.54590
       O   -14.07397   -9.13497  -19.13266
      H1   -13.24528   -9.05261  -18.71684
       H    -9.37678   -4.03062  -12.40226
       O    -8.76225   -4.21297  -11.65572
      H1    -9.39814   -4.42499  -10.98976
       H   -10.08798    0.02287  -15.31111
       O   -10.52826    0.64944  -14.71446
      H1   -10.00642    1.44499  -14.93230
       H    -6.40262   -2.78340  -13.09080
       O    -5.70496   -3.39134  -12.76893
      H1    -5.97703   -4.27670  -13.16677
       H    -5.51514   -5.17294  -18.12112
       O    -6.16513   -5.41854  -18.77548
      H1    -5.79653   -6.16101  -19.24720
       H   -11.51763    6.07112  -16.59064
       O   -10.97268    5.54081  -15.95901
      H1   -11.68828    5.11557  -15.40776
       H    -7.53685   -5.53894  -12.59076
       O    -7.38932   -6.21038  -13.29618
      H1    -8.21426   -6.24398  -13.77370
       H    -6.15653    3.16131  -11.38874
       O    -5.74443    2.47072  -11.98432
      H1    -6.16481    2.48542  -12.88080
       H    -6.76525    2.82623  -15.53843
       O    -6.33544    2.43490  -14.74469
      H1    -5.61952    2.02542  -15.22503
       H   -14.23998   -3.78331  -12.93459
       O   -14.13760   -3.18893  -12.18027
      H1   -13.54462   -3.68951  -11.59789

