165
frame 2 | Written by MDAnalysis XYZWriter (release 2.4.3)
       H    -6.51341    5.89477   -5.26637
       O    -5.99092    5.12143   -5.30793
      H1    -6.47469    4.44911   -4.76397
       H   -12.36454    7.77442   -4.73457
       O   -11.57065    8.29065   -4.72655
      H1   -11.20824    8.28277   -3.86068
       H    -7.34736    6.22728   -8.12988
       O    -7.88550    6.77892   -7.52909
      H1    -8.79498    6.55649   -7.71327
       H   -10.26009    5.36076   -7.23270
       O   -10.46706    5.48195   -8.17441
      H1   -10.04268    4.73254   -8.67744
       H    -7.48463    2.75661   -4.86760
       O    -6.81856    2.85066   -4.12140
      H1    -7.13771    2.14510   -3.49546
       H   -11.40916   12.60283  -11.07628
       O   -11.66629   11.73285  -10.78334
      H1   -12.64482   11.68851  -10.77554
       H   -11.51498    5.24838   -4.99420
       O   -10.67179    5.49335   -5.35676
      H1   -10.42233    6.34299   -4.97546
       H   -13.23284    5.89807   -2.47793
       O   -13.22330    6.32137   -3.34980
      H1   -13.45203    7.26583   -3.16151
       H    -5.82173   10.05231   -7.59236
       O    -6.30980    9.57613   -6.91802
      H1    -6.89358    9.01138   -7.41069
       H    -8.07092    8.27058   -8.96948
       O    -8.47362    8.91079   -9.60277
      H1    -9.42990    8.83787   -9.35922
       H   -11.86298    9.15030   -2.02551
       O   -10.98510    8.65716   -2.03451
      H1   -11.12173    8.02584   -1.32540
       H   -14.68570    8.89789   -2.02106
       O   -14.22033    8.67753   -2.87387
      H1   -14.39233    9.33632   -3.47132
       H    -9.11439    4.14842   -6.07816
       O    -8.77090    3.26140   -6.17556
      H1    -9.50531    2.63200   -6.17752
       H    -3.40662    9.21955   -5.22574
       O    -3.70137    9.90021   -4.65586
      H1    -4.25112    9.36466   -4.04640
       H    -7.87079   11.18983   -4.37532
       O    -8.03039   12.12166   -4.45854
      H1    -8.58770   12.05365   -5.23570
       H    -8.34134   10.55530   -0.77322
       O    -9.27920   10.36852   -0.56986
      H1    -9.71183    9.84755   -1.30133
       H   -14.25300    9.09195  -11.29320
       O   -13.79423    8.26685  -11.60720
      H1   -12.90000    8.51645  -11.73009
       H   -14.21239   12.12441   -5.99325
       O   -14.21798   12.79496   -6.69769
      H1   -13.33991   12.77957   -7.11154
       H   -12.95760   10.16898   -6.86759
       O   -12.98561    9.78291   -7.71204
      H1   -13.66423   10.27898   -8.17344
       H   -10.98054    9.62204  -12.99979
       O   -11.21089    9.30364  -12.14551
      H1   -11.40128   10.12000  -11.61098
       H   -11.51193    6.26288  -13.24922
       O   -10.87468    5.67293  -12.82808
      H1   -10.19671    6.17541  -12.34982
       H    -7.97271    8.26698   -0.35979
       O    -7.44992    7.65189   -0.88339
      H1    -7.37546    6.91901   -0.20292
       H   -13.56742    2.81990   -9.19048
       O   -12.84594    3.38925   -9.49889
      H1   -13.09099    4.30763   -9.59131
       H    -7.45943    3.43569   -7.80364
       O    -6.49769    3.63438   -7.71673
      H1    -6.39001    4.12910   -6.92141
       H   -15.98590    5.14545   -4.57752
       O   -15.99869    5.85628   -3.93529
      H1   -15.06391    6.08702   -3.62147
       H   -14.42821    7.06056   -9.18648
       O   -15.30863    7.40132   -8.90637
      H1   -15.92883    6.86040   -9.45228
       H   -13.58962    5.89415   -6.53331
       O   -13.46475    4.91337   -6.65564
      H1   -12.78996    4.93145   -7.34645
       H   -15.34736   11.41072   -3.97578
       O   -15.14702   10.77025   -4.72446
      H1   -16.02524   10.39353   -5.04770
       H   -11.46003    3.28090  -10.66289
       O   -10.69066    3.39341  -11.23544
      H1   -10.72220    4.32997  -11.61866
       H   -16.50353    3.54989   -6.71258
       O   -15.67223    3.10974   -6.69651
      H1   -14.99748    3.80071   -6.63502
       H    -9.97376    2.88890   -9.62452
       O    -9.34135    3.18329   -8.98135
      H1    -9.69803    2.85935   -8.14465
       H   -12.52411    6.65784  -10.43895
       O   -12.69356    6.24956   -9.56254
      H1   -11.80699    5.97044   -9.23520
       H   -17.94242    6.97470   -7.32420
       O   -17.11981    6.97067   -6.83941
      H1   -16.44448    6.99088   -7.52263
       H    -4.70325   11.64502   -4.81051
       O    -5.14992   12.48540   -4.44512
      H1    -6.09568   12.46035   -4.64403
       H   -10.01045   11.96646   -0.60644
       O   -10.33422   12.85025   -0.40760
      H1   -10.15527   13.23010   -1.29552
       H   -11.43956   12.57510   -4.66719
       O   -11.71146   13.23805   -4.04044
      H1   -12.65935   13.19384   -3.90430
       H    -5.76979   11.38928   -1.09931
       O    -6.56418   10.88278   -0.98002
      H1    -6.29191    9.95330   -1.17866
       H    -9.57167   10.47506   -7.28767
       O    -9.46868   11.45657   -7.04054
      H1   -10.03174   11.92983   -7.66374
       H   -11.36006   13.27429   -8.80128
       O   -11.71890   13.24580   -7.92208
      H1   -11.57775   14.10000   -7.53526
       H    -6.88321    5.27899   -2.44959
       O    -7.80714    4.91896   -2.50613
      H1    -7.72587    4.08205   -2.98519
       H    -6.19254    5.24879  -10.50123
       O    -6.88296    5.31619   -9.80464
      H1    -6.59438    4.68385   -9.10642
       H   -11.24189    8.88574   -7.54654
       O   -10.33756    8.79535   -7.24070
      H1   -10.41746    8.42785   -6.35781
       H   -12.87471    2.79094   -4.84650
       O   -12.74708    3.42660   -4.14955
      H1   -13.42069    4.12775   -4.36099
       H    -7.03119   13.20406   -8.59325
       O    -6.97826   13.07874   -7.63228
      H1    -7.58492   12.27206   -7.49007
       H   -15.90011   10.45747   -8.33345
       O   -16.11516   10.97355   -7.55351
      H1   -15.31649   11.37628   -7.27746
       H    -8.29093    6.09332  -10.76715
       O    -8.82428    6.74185  -11.30959
      H1    -8.63702    7.54179  -10.92408
       H    -5.99450    9.04461   -3.24315
       O    -5.16762    8.83187   -2.78014
      H1    -5.17671    7.97051   -2.36746
       H   -11.11112   11.08570   -6.11472
       O   -11.86263   10.87977   -5.54598
      H1   -11.67198   10.00816   -5.07410
       H   -11.82716    6.32082    0.07046
       O   -11.14009    7.08857    0.10730
      H1   -10.84439    7.18399    0.98534
       H    -8.22969    6.52637   -3.00145
       O    -8.50381    7.32934   -3.61373
      H1    -9.06357    7.81138   -2.99981
       H    -8.27844   12.03685  -11.13476
       O    -7.99039   11.16685  -11.43527
      H1    -8.19146   10.58691  -10.65978
       H    -7.86906    8.73635   -4.42025
       O    -7.25569    9.54396   -4.42114
      H1    -6.78664    9.56212   -5.28245
       H   -10.38358   14.39597   -3.27240
       O    -9.46842   14.30098   -3.03989
      H1    -9.35137   13.42444   -3.35042
       H   -13.98900    8.56753   -6.68548
       O   -13.95656    7.75485   -6.09819
      H1   -14.88119    7.66429   -5.83647
       H   -15.64003    8.96516  -10.05383
       O   -15.54572    9.93437  -10.21217
      H1   -16.35218   10.27602  -10.65115

