165
frame 7 | Written by MDAnalysis XYZWriter (release 2.4.3)
       H    12.24485    4.96720   15.30214
       O    12.62175    4.12538   15.67267
      H1    12.24341    3.46057   14.99899
       H    10.49640    7.10633   17.73099
       O    10.97434    6.31202   17.85463
      H1    10.57937    5.50522   17.58535
       H     8.09429    9.80660   10.84378
       O     8.54030    8.99113   10.55033
      H1     8.01074    8.82285    9.74622
       H    16.34014    6.57450   10.87842
       O    15.52379    7.01795   10.61078
      H1    14.89771    6.44557   11.04962
       H     9.53350   -2.05689   15.89709
       O     9.01445   -2.69702   16.40624
      H1     9.56778   -3.44778   16.29363
       H     5.84987    3.43377   10.98497
       O     4.98086    3.01563   10.77627
      H1     4.45306    3.19875   11.55677
       H    10.35926    4.30716   16.22165
       O     9.60902    4.16519   16.81375
      H1     9.82688    3.34180   17.33108
       H     8.71573    2.36335   15.87780
       O     8.23773    1.49211   15.94015
      H1     7.64852    1.63721   15.14280
       H     8.03918   -3.16254   11.96374
       O     7.67236   -2.79983   11.13470
      H1     6.71646   -2.76021   11.16915
       H    10.29582    9.76151   10.83895
       O    10.90831   10.34940   11.23960
      H1    11.46092   10.76283   10.55372
       H    11.01536    2.11920   14.00421
       O    11.92173    1.83103   14.38085
      H1    12.52927    1.74953   13.63083
       H    14.48177    1.70210   12.27155
       O    13.64179    2.19164   12.24463
      H1    13.23341    1.98463   11.39250
       H    17.33596    3.57823   13.39822
       O    17.26195    3.79926   14.31837
      H1    16.39464    3.43190   14.59954
       H    13.45452   -1.94096   13.34708
       O    13.36508   -0.95790   13.43614
      H1    12.69619   -0.73653   12.78776
       H     9.91140    6.75564   14.93110
       O    10.51019    5.97414   14.73635
      H1    10.04352    5.39574   14.09461
       H     3.05563    3.87498   13.51640
       O     3.76178    3.18663   13.52098
      H1     3.84252    2.98980   14.43777
       H    16.10012    0.39714   15.07994
       O    15.18881    0.68553   15.32851
      H1    14.59640    0.25334   14.68005
       H     4.97523    0.23132   16.46554
       O     4.96226   -0.30387   15.65670
      H1     5.48224   -1.10056   15.85353
       H     9.22230    8.54868   16.08656
       O     8.86991    8.30281   15.21720
      H1     8.21556    7.60525   15.43190
       H    16.45672    1.21128    9.31269
       O    16.00595    2.03850    9.17535
      H1    15.10997    1.76001    8.94350
       H     4.67848    6.47220   14.16672
       O     5.05252    6.41185   13.28631
      H1     5.54766    7.22836   13.08424
       H     6.89309    6.86479    8.61004
       O     6.49920    5.99269    8.41933
      H1     5.65395    6.10527    8.87677
       H     9.73533   -0.26277   14.03683
       O     9.36263   -0.43742   13.11820
      H1     8.42309   -0.35947   13.34450
       H     6.60907    1.74220   13.54938
       O     6.65764    2.58212   14.01819
      H1     5.94594    3.11356   13.57149
       H     4.72666    0.64648   18.56456
       O     5.13318    1.29035   17.96244
      H1     6.08149    1.26040   18.16401
       H     7.51538    4.38795   13.77373
       O     7.67588    5.35214   13.66681
      H1     6.75287    5.61689   13.57330
       H     8.51235   -1.06416    8.69855
       O     8.26541   -0.67628    9.55205
      H1     8.06119   -1.44499   10.10088
       H    10.62542    6.44458   10.94068
       O    10.85385    7.34114   10.71715
      H1     9.98378    7.71772   10.58911
       H     6.60912    0.40009    9.64038
       O     5.74847    0.61837    9.35700
      H1     5.41215    1.37829    9.85928
       H    11.78698   -0.92654   16.11009
       O    12.53636   -1.51808   16.07802
      H1    12.89914   -1.28634   15.22900
       H    16.45567    1.72986   11.16459
       O    17.05687    1.72817   11.94095
      H1    17.89548    2.00422   11.57263
       H    11.60098   -1.10985   11.15239
       O    11.42627   -0.20849   11.41702
      H1    10.69894   -0.06453   12.03704
       H     2.58221    2.95858   16.62522
       O     3.48564    3.28654   16.50338
      H1     4.09507    2.73743   16.93527
       H    11.83883    6.86735    9.25964
       O    12.17959    6.62334    8.38199
      H1    11.38347    6.85848    7.85675
       H     6.27378   -0.53452   12.91308
       O     6.82307   -0.34886   13.65268
      H1     6.14197   -0.30632   14.40837
       H    13.64006    5.78872   12.89022
       O    13.68649    5.29267   12.06607
      H1    13.67586    4.34268   12.29101
       H    12.05113    3.48338    8.16886
       O    11.58338    3.06234    8.88898
      H1    10.64134    2.92656    8.80836
       H     8.14530    4.41488   18.01234
       O     7.42424    4.19480   18.60561
      H1     7.80754    4.24166   19.46614
       H    10.38766    3.68263   12.39503
       O     9.96633    3.13132   13.11564
      H1     9.50423    2.47011   12.60711
       H     9.61849    2.46775   19.64305
       O    10.01029    2.31822   18.76526
      H1    10.86763    1.89599   18.98218
       H     8.97203    1.04574   18.54945
       O     8.22451    0.37759   18.48673
      H1     8.00930    0.43491   17.52374
       H    14.94709    2.23415   15.84248
       O    15.10326    3.18052   16.13029
      H1    14.24695    3.60407   16.23725
       H    13.50331   -1.09193   18.71336
       O    14.03184   -0.49804   18.16373
      H1    13.71052   -0.71087   17.28602
       H    12.48635   -2.95406   10.46377
       O    13.01226   -2.19344   10.21032
      H1    13.88184   -2.32008   10.65089
       H    12.46062    7.35014   14.20412
       O    13.38218    7.33146   13.95452
      H1    13.57702    8.05864   13.37372
       H    11.13823    4.31742   10.37523
       O    11.19573    4.80963   11.23432
      H1    12.09470    5.03880   11.52650
       H    12.56546    1.61355    9.07607
       O    13.09340    0.83665    9.37580
      H1    12.39777    0.31882    9.88980
       H     6.31330    9.13190   12.89610
       O     5.94875    8.74982   12.11519
      H1     5.88559    9.47807   11.47952
       H     9.78575    0.53239   16.00944
       O    10.49613    0.01005   15.62688
      H1    11.24060    0.58677   15.38282
       H     8.43698    2.68462   10.17078
       O     9.14425    2.18157    9.75318
      H1     8.81467    1.22670    9.72712
       H     9.63183   -3.46392   10.68801
       O    10.58218   -3.66545   10.73967
      H1    10.85782   -3.55562   11.64911
       H     9.67986   -3.45112   13.67284
       O    10.52690   -3.01081   13.50463
      H1    10.27052   -2.09351   13.23318
       H    14.64728    7.78614   15.03393
       O    15.43875    8.24319   15.25766
      H1    15.37983    8.55267   16.17319
       H     7.25101    8.86802   15.04877
       O     6.29472    9.07080   14.88430
      H1     6.02785    9.22418   15.81631
       H     6.99733    5.10629   10.07654
       O     7.44179    4.43302   10.62819
      H1     7.63331    4.91847   11.43758

