165
frame 7 | Written by MDAnalysis XYZWriter (release 2.4.3)
       H     8.80005    4.62400  -13.51351
       O     9.13226    4.73796  -12.60765
      H1     8.54936    5.24937  -12.08341
       H    17.86073    3.91387   -6.56214
       O    18.50202    4.08612   -5.84118
      H1    18.82931    3.25552   -5.52972
       H     8.77381    8.58170  -12.82964
       O     9.78615    8.57785  -12.96910
      H1    10.09163    8.22604  -12.08567
       H    15.80582    8.61553   -7.32438
       O    15.29986    9.34494   -6.95677
      H1    14.63280    8.93898   -6.38794
       H    13.00906    9.03858  -13.98269
       O    12.56465    9.89548  -14.09692
      H1    13.22779   10.55334  -13.72636
       H    19.11566    4.68164   -9.17593
       O    19.12771    5.55104   -9.65000
      H1    19.24000    5.47645  -10.63917
       H    12.12742    4.48720   -8.12903
       O    11.42464    4.51091   -7.53253
      H1    11.66489    5.01535   -6.76597
       H    13.43656   11.18880  -11.77519
       O    13.82527   11.91818  -12.31631
      H1    13.49978   12.70171  -11.91021
       H    15.70718   11.63081  -11.86270
       O    16.63688   11.46570  -11.82637
      H1    16.97880   12.12392  -11.20680
       H    14.52465    8.77010   -8.71632
       O    14.44482    8.09941   -9.39309
      H1    13.88381    8.59406  -10.02525
       H    14.10509    3.37994   -6.32646
       O    14.05015    3.72575   -5.39059
      H1    13.43843    4.46221   -5.28634
       H    12.92426    3.83844  -13.58776
       O    12.65663    4.02594  -12.68589
      H1    11.73455    4.03894  -12.77390
       H    18.14269   10.58556   -7.45697
       O    17.80122   10.89539   -8.34995
      H1    17.18000   10.21087   -8.64723
       H    16.89002    6.78100   -5.42546
       O    16.85920    6.61887   -4.43297
      H1    16.70486    5.66317   -4.30770
       H    12.11705    9.64614  -10.88118
       O    13.00133    9.97941  -10.68280
      H1    12.97213   10.53676   -9.90794
       H    10.89896    6.66658  -16.21396
       O    11.55736    6.18286  -16.75258
      H1    11.84224    5.35274  -16.38604
       H    14.47050    7.10014  -12.53950
       O    13.59330    7.41293  -12.75659
      H1    12.97302    7.14459  -12.08793
       H    16.39955    7.79541  -15.50992
       O    15.84644    8.59225  -15.35496
      H1    15.29906    8.68906  -16.13286
       H     7.54371    6.75289  -10.27859
       O     7.54063    5.93951  -10.80063
      H1     6.67727    5.97799  -11.27710
       H    10.32858    8.90622   -8.79407
       O    10.53069    8.72845   -9.72882
      H1    10.80346    7.79400   -9.78140
       H    13.28045   11.98875   -7.91063
       O    12.79725   11.19595   -8.18547
      H1    11.86376   11.30711   -7.98586
       H    20.01214    2.47267   -7.96841
       O    19.68771    2.81977   -8.86387
      H1    18.80210    2.48435   -8.95872
       H     8.61267    2.23794  -10.53323
       O     9.07856    2.08129  -11.44412
      H1     9.41973    2.93509  -11.74828
       H    18.45991    6.06998  -12.93768
       O    18.98143    5.47080  -12.36287
      H1    18.66252    4.58652  -12.54247
       H    13.42774    1.99822   -4.76199
       O    12.91035    1.16899   -4.59255
      H1    12.86440    0.89761   -3.67042
       H     9.71853    9.16873   -6.53624
       O     9.39902    9.30384   -7.44607
      H1     8.70382    8.68408   -7.68654
       H    16.57503    7.88608  -12.01488
       O    16.36073    7.19772  -12.61429
      H1    16.26975    7.54783  -13.48489
       H    11.85266    5.73050   -4.50371
       O    12.42972    5.83719   -5.25765
      H1    13.10448    6.52813   -5.05845
       H    15.55916    3.86943   -4.46062
       O    16.46050    3.97337   -4.02426
      H1    17.03823    3.73267   -4.77434
       H    15.85231    2.81239  -13.56576
       O    16.00831    2.06794  -13.01845
      H1    16.23211    1.39425  -13.62039
       H    13.89733    0.52066  -14.20336
       O    13.65770    0.79797  -13.28083
      H1    14.52647    1.16558  -12.96332
       H     8.81689    6.00701   -6.27984
       O     8.91718    5.64513   -7.14937
      H1     9.77096    5.15256   -7.15636
       H     8.23745    6.76657   -8.13164
       O     7.65501    7.44907   -8.55857
      H1     6.74320    7.42516   -8.31419
       H    10.65653    5.82546  -11.72603
       O    11.28988    6.48687  -11.36510
      H1    11.89886    5.95598  -10.81737
       H     9.08324    7.94629  -16.10841
       O     9.41470    7.22511  -15.57672
      H1     9.65559    7.55948  -14.72891
       H    17.37126    2.35924  -10.08116
       O    17.06508    1.54450   -9.62461
      H1    16.40849    1.83130   -8.98775
       H    13.02628    3.24712  -15.76682
       O    12.28610    3.81763  -15.51776
      H1    11.53562    3.35737  -15.77507
       H    15.82340    8.72853  -10.13993
       O    16.64806    9.12903  -10.48491
      H1    16.49338    9.94719  -11.03090
       H    16.89528    6.16261   -7.52204
       O    17.11673    7.07163   -7.24864
      H1    18.06636    7.31522   -7.45797
       H    12.85344   10.02408   -6.43262
       O    12.87560    9.81018   -5.49440
      H1    11.97807    9.49406   -5.36428
       H    11.20283    2.09296   -5.47968
       O    10.41212    2.08142   -5.94405
      H1    10.75715    2.56048   -6.70438
       H    17.83897    5.76500  -15.89744
       O    17.85690    6.31805  -15.13858
      H1    18.65576    6.77464  -15.32507
       H    14.32184    2.38693   -8.73327
       O    14.63166    2.34975   -7.87091
      H1    14.97132    1.40548   -7.80636
       H    16.05219    3.84875   -7.88345
       O    16.78484    4.44846   -7.86463
      H1    16.90510    4.61692   -8.79399
       H    16.08482   -0.98722   -7.86114
       O    15.57427   -0.24228   -7.63567
      H1    14.75118   -0.53603   -7.19228
       H    17.63606    0.04359  -10.47345
       O    18.15431   -0.68958  -10.94929
      H1    18.66407   -1.05007  -10.23590
       H    15.42826   -2.09711  -12.84587
       O    14.49341   -2.00272  -12.60813
      H1    14.20211   -1.09893  -12.76469
       H    15.92539    5.35842  -14.58796
       O    15.38539    4.59637  -14.33550
      H1    14.68577    4.84927  -13.77669
       H    11.39472    0.61863  -12.18555
       O    11.04971   -0.08461  -11.58709
      H1    10.40342    0.42229  -11.08320
       H    15.42973    7.37561   -4.59028
       O    14.45632    7.65210   -4.73459
      H1    14.23046    8.49223   -4.26568
       H    13.17596    2.72350  -11.07091
       O    13.53533    2.47138  -10.20655
      H1    12.95317    1.74700   -9.97527
       H    13.62674    6.58253   -9.43328
       O    13.31741    5.69414   -9.77545
      H1    14.02043    5.22725  -10.20543
       H    19.74195    8.98125   -8.58280
       O    19.49413    8.06799   -8.42386
      H1    19.36451    7.54238   -9.24818
       H    16.67939    5.15782  -11.14372
       O    16.17316    4.46352  -10.66300
      H1    16.16157    3.69154  -11.27402
       H    17.75093    2.17112  -12.28796
       O    18.46769    2.69238  -11.92040
      H1    19.26210    2.50833  -12.39562

