165
frame 11 | Written by MDAnalysis XYZWriter (release 2.4.3)
       H     7.95038  -12.30151    6.76120
       O     8.18939  -13.11023    7.15864
      H1     7.45271  -13.52529    7.68897
       H     6.08620   -8.63785    1.70271
       O     5.87189   -7.92839    1.06144
      H1     5.23755   -8.41363    0.43790
       H     5.39130   -8.19908    9.43850
       O     6.09573   -8.31094   10.08242
      H1     6.58319   -9.07461    9.66498
       H     2.58271  -10.82343    0.64864
       O     2.14398  -10.96279   -0.21146
      H1     2.77797  -10.54468   -0.79977
       H     8.49583   -8.94241    7.10318
       O     8.15330   -8.87051    6.15824
      H1     8.75896   -8.42339    5.60579
       H     7.52281  -11.38014   10.39738
       O     7.45342  -10.80715    9.54880
      H1     8.41767  -10.56840    9.44088
       H    -0.07087  -17.12007    2.70943
       O     0.75396  -17.57527    2.86611
      H1     1.47946  -16.92585    2.77144
       H     1.37721  -13.97143    7.52898
       O     1.96983  -13.60910    8.19266
      H1     2.41280  -12.82236    7.79852
       H     5.15332   -8.42025    3.53888
       O     4.75011   -7.61140    3.83350
      H1     5.45808   -6.94550    3.86894
       H     5.24220   -7.95226    5.47505
       O     5.68144   -8.13540    6.30998
      H1     6.58717   -8.42991    6.00947
       H     8.92012  -14.43312    6.49855
       O     9.29639  -15.16733    5.96889
      H1     9.07065  -14.83528    5.08269
       H     2.54754  -15.04427    2.07538
       O     2.82173  -15.73136    2.69867
      H1     3.70123  -15.94945    2.30970
       H     1.05380  -11.39450   10.30557
       O     0.84670  -12.26025   10.72991
      H1     0.57347  -12.88830   10.04293
       H     4.28998  -13.88132   11.28667
       O     4.86451  -14.64191   11.33635
      H1     4.64033  -15.12254   10.54707
       H     6.76070  -11.31402    1.96068
       O     7.33331  -11.94458    1.50394
      H1     8.07592  -11.35815    1.26195
       H     3.12403  -11.60632    3.24466
       O     3.23517  -10.76517    2.79751
      H1     2.36953  -10.31266    3.02269
       H     4.51737  -18.20726    3.45706
       O     4.63515  -19.01052    2.98215
      H1     4.03741  -18.98828    2.24744
       H     7.36254  -15.59646    1.84227
       O     8.22202  -16.00425    1.76490
      H1     8.88473  -15.42072    2.15604
       H    11.78334  -12.55565    3.35552
       O    11.05625  -12.01557    3.68249
      H1    11.37666  -11.23482    4.18238
       H    -1.01802  -13.08724    4.71693
       O    -0.57414  -12.45427    5.26185
      H1     0.26736  -12.16432    4.97254
       H     4.49817  -17.50162    0.67988
       O     4.76591  -16.61929    1.01022
      H1     4.43632  -15.97945    0.31882
       H     6.21555  -11.81237    8.81301
       O     5.52807  -12.51868    8.80410
      H1     5.84664  -13.34110    9.18409
       H     6.06080  -12.99895   -1.20755
       O     5.57743  -12.29299   -0.75309
      H1     6.20458  -12.07965    0.02776
       H     7.01081   -6.66764    6.74806
       O     7.72469   -5.99967    6.78489
      H1     8.54856   -6.45166    6.83573
       H     8.85767  -16.12061   11.07287
       O     9.16033  -15.35106   10.56784
      H1     9.12932  -14.55621   11.19297
       H     7.97609  -10.42497    5.42338
       O     7.41748  -11.23680    5.22888
      H1     7.95558  -11.92355    4.79068
       H     8.37500  -13.28666    3.01483
       O     8.57310  -13.52105    3.90030
      H1     9.43405  -13.09693    4.01777
       H    -0.56630  -10.21534    7.37317
       O    -1.23976  -10.93194    7.38919
      H1    -0.95334  -11.55261    6.65900
       H     1.38274   -9.47195   11.02217
       O     2.00454   -9.85914   10.27779
      H1     2.91740   -9.63965   10.59135
       H     3.54208  -18.14230    7.26350
       O     2.95733  -18.75261    6.75112
      H1     2.30325  -18.14535    6.31852
       H     5.72046  -12.53428    5.69364
       O     4.88072  -12.95173    5.95338
      H1     4.98128  -13.09598    6.89077
       H     6.37576  -11.79513   12.25100
       O     6.99431  -12.42772   11.85452
      H1     6.47876  -13.19619   11.61082
       H    12.36516  -16.01518    7.51381
       O    11.61353  -15.51449    7.74098
      H1    11.01349  -15.59191    6.97318
       H     2.70037  -13.77555   -1.21146
       O     3.15896  -14.02889   -0.41401
      H1     4.01226  -13.60789   -0.51418
       H     4.39737   -8.34252    7.61496
       O     3.83363   -8.47432    8.39523
      H1     3.24043   -7.68414    8.32860
       H    -0.50112  -14.76455    7.37447
       O     0.16497  -14.68031    6.66958
      H1    -0.10340  -13.83137    6.24387
       H     5.17941   -9.44541   11.32883
       O     4.48775   -9.69922   11.99295
      H1     4.10602  -10.53266   11.59430
       H     6.55721  -19.19253    2.42333
       O     7.46485  -18.89093    2.48408
      H1     7.33881  -17.95897    2.65069
       H     0.80694   -8.86453    6.54953
       O     0.88953   -9.68719    6.06583
      H1     1.61864  -10.18437    6.48846
       H     0.87352  -12.35308    1.57477
       O     1.43750  -13.20040    1.70543
      H1     2.06510  -13.15322    0.96150
       H     3.61699  -11.60383    6.61406
       O     2.90392  -11.18801    7.18260
      H1     3.32749  -10.56695    7.77429
       H     6.63219  -17.62988    4.50678
       O     6.03793  -16.90765    4.33507
      H1     6.00424  -16.43791    5.13136
       H     4.87701  -10.40082    3.13925
       O     5.89139  -10.30702    3.18966
      H1     6.19902  -10.65427    4.04934
       H     3.00181  -16.73211    8.82550
       O     3.51359  -15.92081    8.85003
      H1     2.88515  -15.28316    8.50393
       H    11.39157   -9.82126    0.87045
       O    11.36467   -9.33234    1.71250
      H1    11.02201  -10.05516    2.29209
       H     0.84651   -9.81483    4.30965
       O     0.79636   -9.76948    3.30304
      H1     0.14248  -10.42329    3.04994
       H     3.43927  -13.37058    4.69286
       O     2.59919  -12.86632    4.43485
      H1     2.30164  -13.37443    3.66568
       H     0.39878  -16.31181    5.96943
       O     0.68992  -17.23649    5.71761
      H1     0.60098  -17.42446    4.71417
       H     6.98781  -15.76423    8.16947
       O     7.11547  -14.95554    8.76671
      H1     7.78737  -15.23193    9.41522
       H     9.31971  -12.85176    0.35277
       O     9.64075  -13.74557    0.20945
      H1    10.32461  -13.60048   -0.49870
       H     2.79241  -12.20055   10.84685
       O     3.74098  -12.12315   10.90816
      H1     4.00957  -12.21559    9.99693
       H     9.10817  -17.27279    8.20953
       O     9.91481  -17.81991    8.35885
      H1    10.67143  -17.19953    8.46314
       H     8.13278  -16.29901    6.36719
       O     7.45965  -16.83801    6.79707
      H1     7.22884  -17.57385    6.19812
       H     9.98900  -12.53201    7.17168
       O    10.75445  -11.93538    6.99732
      H1    10.67934  -11.89687    6.05049
       H    10.02237   -9.99615    9.30715
       O     9.70299   -9.79400    8.43018
      H1    10.24740  -10.39215    7.87515

