165
frame 7 | Written by MDAnalysis XYZWriter (release 2.4.3)
       H    16.85038   -1.99344   13.55967
       O    16.63688   -2.37910   14.40886
      H1    17.12185   -1.81317   15.08799
       H    11.99162   -6.28278    9.80214
       O    11.02256   -6.21867    9.93675
      H1    10.84088   -5.41250   10.42716
       H     8.97916   -8.84186    6.57844
       O     8.19743   -8.80189    5.96353
      H1     8.46397   -8.31735    5.23735
       H    13.89632   -7.42556    3.67547
       O    13.79050   -6.83007    4.41586
      H1    14.62290   -6.75300    4.85931
       H    18.11747   -3.94897   10.73635
       O    18.38161   -3.07872   10.32335
      H1    19.16754   -2.89176   10.83295
       H     8.03918   -3.16254   11.96374
       O     7.67236   -2.79983   11.13470
      H1     6.71646   -2.76021   11.16915
       H    14.28055   -5.88472   10.39737
       O    13.79289   -6.01844    9.56981
      H1    13.84178   -5.19669    9.02047
       H     9.34949   -4.03157    4.13660
       O    10.30184   -3.96518    4.03031
      H1    10.42506   -4.37730    3.19998
       H    11.88892   -8.60204    6.60136
       O    12.31508   -9.40892    6.93390
      H1    13.10838   -9.07903    7.38463
       H    11.21640   -2.93547    5.69268
       O    11.12255   -2.49930    6.51914
      H1    12.00178   -2.05812    6.58923
       H    14.86225  -12.36108   10.03052
       O    14.05993  -11.98467    9.70339
      H1    13.38372  -12.56711   10.12952
       H    19.02353   -4.61007    6.69827
       O    18.44393   -3.87317    6.88605
      H1    17.80958   -4.22113    7.57343
       H     8.18594   -9.45080   13.08603
       O     8.45489   -8.50217   13.00409
      H1     8.86219   -8.48973   12.12390
       H    12.55900  -11.11184    4.47674
       O    11.68200  -10.73983    4.63441
      H1    11.72713   -9.96860    5.24085
       H    15.55799   -1.17155    8.37912
       O    16.17082   -1.04446    9.06869
      H1    17.05951   -1.13769    8.68915
       H    10.40932   -7.09725   14.81458
       O    10.64289   -7.96050   14.45891
      H1     9.89895   -8.19470   13.83967
       H    13.45452   -1.94096   13.34708
       O    13.36508   -0.95790   13.43614
      H1    12.69619   -0.73653   12.78776
       H    17.76610   -8.16158    3.16378
       O    17.14442   -8.89105    3.42399
      H1    16.52914   -8.36644    3.89541
       H    14.18104   -4.58780    4.24944
       O    14.24263   -3.81891    4.82775
      H1    15.20622   -3.61900    4.75047
       H    14.43311   -7.68525    9.00817
       O    14.49859   -8.56057    8.53284
      H1    14.02941   -9.10190    9.16149
       H     9.96766   -7.49530    4.41712
       O     9.17621   -7.38211    3.87749
      H1     9.47756   -7.25541    2.99379
       H     7.09270   -4.64189    9.29260
       O     7.64390   -5.49634    9.27796
      H1     7.03088   -6.22149    9.07339
       H    13.70876   -7.20176   15.31217
       O    13.30065   -7.70938   14.55251
      H1    12.31705   -7.72132   14.55053
       H    16.77897   -1.92127    5.39166
       O    17.06784   -2.71693    4.94344
      H1    17.50053   -3.37833    5.51754
       H     7.21740   -7.18799   11.92921
       O     6.86564   -6.32734   11.67666
      H1     7.43491   -6.03716   10.94903
       H    13.42972   -0.56526    7.96905
       O    13.66988   -1.16364    7.23409
      H1    14.39878   -0.79523    6.71997
       H    16.45672    1.21128    9.31269
       O    16.00595    2.03850    9.17535
      H1    15.10997    1.76001    8.94350
       H    15.78570   -4.00995    8.35275
       O    16.60264   -4.46754    8.57625
      H1    17.09259   -3.87811    9.16645
       H    11.64161  -11.27678   10.45429
       O    11.62109  -10.73046   11.23474
      H1    12.56492  -10.54980   11.35331
       H    17.24295   -0.19107   12.21078
       O    17.22835   -1.11509   12.20835
      H1    17.53924   -1.51231   11.35974
       H    10.56944   -9.33692   10.92248
       O     9.98202   -8.55890   10.72129
      H1    10.52631   -7.82650   10.48086
       H    13.27410   -3.12562    7.91731
       O    13.61326   -3.99238    7.66581
      H1    13.58253   -4.02428    6.68200
       H    13.91372   -1.37254    3.84965
       O    14.18626   -0.46109    3.72715
      H1    13.35107    0.04652    3.65280
       H    10.90495   -6.50043    6.19466
       O    11.34781   -7.13947    5.56584
      H1    12.13878   -6.80180    5.15671
       H     8.51235   -1.06416    8.69855
       O     8.26541   -0.67628    9.55205
      H1     8.06119   -1.44499   10.10088
       H    14.50272   -6.92745   12.67436
       O    14.93916   -6.11445   12.40278
      H1    14.70236   -5.46001   13.07282
       H    13.86382   -8.93355   13.15305
       O    14.11632   -9.47947   12.41352
      H1    15.01263   -9.20136   12.15673
       H     9.96085   -0.77493    6.70640
       O     9.10878   -0.39535    6.75593
      H1     8.68599   -0.85735    6.01297
       H    11.60098   -1.10985   11.15239
       O    11.42627   -0.20849   11.41702
      H1    10.69894   -0.06453   12.03704
       H    18.66286   -8.56600    6.96823
       O    18.54371   -7.62652    7.06550
      H1    19.38848   -7.21596    6.75919
       H    16.57153    0.36055    6.24707
       O    15.94155   -0.18788    5.79333
      H1    15.57630    0.33489    5.04334
       H    17.95497   -8.61379   13.89932
       O    17.45602   -9.28450   13.34022
      H1    17.34356   -8.84065   12.48599
       H    10.74576   -4.60155    7.37764
       O    10.10157   -5.33821    7.23220
      H1    10.06711   -5.81633    8.06618
       H    17.57923   -6.38487   10.83463
       O    17.64701   -5.68215   11.48239
      H1    16.76311   -5.77961   11.92149
       H    15.49776   -8.01223    7.20872
       O    15.95891   -7.64932    6.38845
      H1    16.88975   -7.46555    6.53795
       H     8.65847   -4.10698    7.00140
       O     7.95821   -3.52304    6.59325
      H1     7.41102   -4.19442    6.14042
       H    13.97906   -3.73391   14.37824
       O    14.31691   -3.40769   13.51142
      H1    15.15248   -2.97807   13.76890
       H    12.48635   -2.95406   10.46377
       O    13.01226   -2.19344   10.21032
      H1    13.88184   -2.32008   10.65089
       H    12.56546    1.61355    9.07607
       O    13.09340    0.83665    9.37580
      H1    12.39777    0.31882    9.88980
       H    16.65562   -9.87040   10.80781
       O    16.52621   -8.84867   10.76622
      H1    15.79352   -8.68822   10.09295
       H    18.85757   -8.06031    8.92459
       O    18.98701   -8.03132    9.89407
      H1    18.25244   -8.55240   10.24810
       H     9.63183   -3.46392   10.68801
       O    10.58218   -3.66545   10.73967
      H1    10.85782   -3.55562   11.64911
       H     9.67986   -3.45112   13.67284
       O    10.52690   -3.01081   13.50463
      H1    10.27052   -2.09351   13.23318
       H    10.51215  -11.97100    7.82712
       O    11.12079  -11.48241    8.40575
      H1    11.66417  -10.93981    7.88036
       H     9.67354   -9.06195    9.19356
       O     9.25517   -9.61168    8.47570
      H1     9.84155  -10.40618    8.46861

