165
frame 10 | Written by MDAnalysis XYZWriter (release 2.4.3)
       H     7.26903    9.06484   10.59184
       O     7.10562    8.11929   10.53292
      H1     6.86948    7.86647    9.61966
       H    16.14902    6.23822   10.79614
       O    15.24754    6.61219   10.73687
      H1    14.83332    6.48163   11.59125
       H     5.30411   12.58193   14.58282
       O     5.78345   11.92353   15.20804
      H1     5.92571   11.05289   14.73096
       H     5.75874    2.58837   11.43561
       O     5.33350    1.72064   11.63058
      H1     5.13738    1.84644   12.57433
       H     2.99934    3.66040    9.84047
       O     3.15473    4.56369   10.18693
      H1     2.38769    4.66461   10.78716
       H    15.44406    3.32535    8.27677
       O    15.05903    4.07346    7.74584
      H1    14.49298    4.52183    8.44141
       H    11.33168    8.84369   11.29616
       O    11.85664    9.54155   11.67967
      H1    12.11758   10.13280   10.92869
       H    10.34173    3.02561   15.65620
       O    11.26136    2.88301   15.56600
      H1    11.51370    3.30173   14.75837
       H    13.20196    2.68621   13.20731
       O    12.59698    3.40858   13.13375
      H1    11.94619    3.19555   12.44676
       H    13.06404   11.72049    9.22225
       O    12.25551   11.46362    9.69518
      H1    11.66422   12.23526    9.93208
       H     5.92336    3.71759    6.35999
       O     5.50582    3.99661    7.18607
      H1     6.21195    4.42755    7.68040
       H    11.93607    3.21269    6.60169
       O    11.21453    3.30845    7.24665
      H1    10.60557    2.68684    6.90156
       H     3.76700    6.41248   14.24836
       O     4.14178    7.20876   14.59437
      H1     3.30705    7.66340   14.77367
       H     8.34824    7.80758    4.98478
       O     8.35336    7.01062    5.58489
      H1     9.22487    6.58674    5.46806
       H    14.08849   11.15776   11.48886
       O    14.72409   10.57774   11.00550
      H1    14.34089   10.35855   10.09930
       H     9.23877    6.74910   16.32384
       O    10.12572    6.46325   16.12985
      H1     9.97457    5.93176   15.32850
       H    14.17234    8.82895   13.80018
       O    13.26562    8.90977   14.12297
      H1    12.66851    8.79159   13.33742
       H    11.98507    8.07616    7.24257
       O    12.59725    8.55736    6.69323
      H1    12.07487    9.31779    6.37250
       H     6.85814    6.29019   16.14200
       O     7.55874    6.58545   15.57084
      H1     7.28113    6.20744   14.70744
       H    11.41703    5.85704    5.02521
       O    10.71224    5.41080    5.44675
      H1    11.03164    4.71611    6.02713
       H     5.28768    7.39402   13.14678
       O     5.58930    6.96966   12.32526
      H1     6.27524    7.48169   11.82085
       H    15.61190    8.11980    7.66648
       O    15.47174    7.18329    7.69762
      H1    15.49265    6.93187    8.62228
       H     7.30498    6.34107    4.50250
       O     6.81473    5.66107    3.91250
      H1     7.27450    5.55429    3.11647
       H     7.11099    8.40578    6.78088
       O     6.72309    8.90970    7.49450
      H1     7.08734    9.83484    7.41507
       H    10.09208   10.38280    5.53253
       O    10.31745   10.30235    4.59395
      H1     9.53842    9.96321    4.22460
       H     8.90403   12.10552   15.37275
       O     8.27344   12.62377   14.84455
      H1     7.42364   12.32297   15.17444
       H     7.39546    6.18549    7.46538
       O     6.98935    5.81207    8.25461
      H1     6.13659    6.22047    8.39902
       H     5.91266   13.68152   10.75004
       O     5.79644   12.73477   10.96951
      H1     5.10589   12.52001   10.36732
       H    13.25654    7.22955    4.11797
       O    13.38248    6.61321    4.84628
      H1    13.06479    7.06401    5.62996
       H    14.02617   11.59176   15.75648
       O    13.17388   11.44832   15.36079
      H1    13.07864   10.51757   15.08137
       H     6.28872    4.17681   14.09856
       O     6.67232    4.87677   13.53678
      H1     6.09367    5.61450   13.23545
       H    10.14343    6.79398   10.97175
       O     9.87875    7.57260   10.41836
      H1     8.95428    7.70847   10.60237
       H     7.16856   11.60376   10.66827
       O     7.76290   10.80428   10.84130
      H1     8.64068   11.19307   10.95352
       H     9.33975   11.89076   13.47251
       O     9.93515   11.64648   12.71666
      H1    10.36715   10.94516   13.14069
       H    14.36024    9.10193    6.73444
       O    15.03881    9.80235    6.73395
      H1    15.52806    9.67934    5.92794
       H    10.55962    6.69028    8.72573
       O    11.23015    6.52689    8.05555
      H1    10.70265    6.20268    7.29210
       H    11.16544   11.29437    8.22368
       O    10.81387   11.05236    7.34723
      H1    10.79746   11.90764    6.94792
       H     8.01953   12.29860    6.47020
       O     7.88122   11.41300    6.77913
      H1     8.61805   11.34044    7.38489
       H    13.28169    6.58683   13.67624
       O    13.46274    6.24432   12.78802
      H1    13.37918    5.27028   12.81341
       H    11.01644    3.04456    9.76462
       O    11.19323    2.74320   10.67954
      H1    10.54869    2.07507   10.88948
       H     3.57649    8.94603   11.87511
       O     4.20852    9.57311   11.68071
      H1     4.85003    9.60272   12.42932
       H    10.64225   14.53440   11.03417
       O    10.57525   13.54352   11.00726
      H1    10.39211   13.27281   11.92403
       H     3.30182    7.38079    8.49937
       O     2.39865    7.13091    8.25603
      H1     2.13068    7.72951    7.55509
       H     9.77512    5.07144   13.04251
       O     9.45435    4.78655   13.93051
      H1     8.51718    4.67010   13.80105
       H     4.23441    5.77032    9.68098
       O     4.70770    6.63121    9.51771
      H1     5.02625    6.93708   10.40460
       H    11.99872    6.98939   16.00351
       O    12.92636    6.95583   15.84820
      H1    13.10408    7.78035   15.35004
       H    10.91958    4.75930   11.03051
       O    10.91568    5.44543   11.70226
      H1    11.78473    5.70972   11.95955
       H     6.86028    8.84289   14.73546
       O     6.48928    9.51135   14.14192
      H1     7.10351    9.49204   13.42654
       H    12.39045   12.53991   12.41802
       O    13.30198   12.54777   12.74227
      H1    13.20905   12.19186   13.64017
       H     3.28306   10.72691   12.61700
       O     2.72847   11.32172   13.13336
      H1     3.24886   12.08009   13.36554
       H    12.78140    6.02538    8.91089
       O    13.38126    5.42300    9.38503
      H1    14.03442    5.90870    9.90659
       H     2.53179   10.99742    9.87021
       O     3.44037   11.34177    9.59211
      H1     4.05039   10.63033    9.72732
       H     7.73745    2.56557    9.58640
       O     8.31337    1.86450    9.19899
      H1     7.95536    1.06485    9.62069
       H    11.26661   10.83161   15.91869
       O    10.42906   10.75669   15.48196
      H1     9.72425   10.45417   16.13943
       H     6.81606    4.81932   10.33265
       O     7.22170    4.05725   10.77593
      H1     7.07162    4.25967   11.71669

