165
frame 1 | Written by MDAnalysis XYZWriter (release 2.4.3)
       H     7.08107   -8.03989  -14.72751
       O     6.47876   -8.68798  -14.26380
      H1     7.06874   -9.32767  -13.78105
       H     6.45908   -5.13270  -15.92718
       O     6.81947   -4.85556  -15.10267
      H1     6.07809   -4.36974  -14.72098
       H    -4.87722  -12.12547  -16.09617
       O    -4.53564  -12.80621  -15.51915
      H1    -3.81149  -13.13135  -16.15363
       H     0.47030  -18.49551  -15.94769
       O     0.17327  -18.78305  -15.06714
      H1     0.78125  -19.31910  -14.56709
       H     0.39261  -10.54931  -11.54336
       O     1.26277  -10.16127  -11.80497
      H1     1.70632  -10.81535  -12.30791
       H     1.63537   -6.51643  -12.62825
       O     1.31823   -5.58467  -12.83881
      H1     0.68698   -5.67087  -13.60381
       H     4.86328  -15.90145  -15.19586
       O     5.37057  -15.39144  -14.52830
      H1     6.03673  -16.03261  -14.18492
       H     7.09434  -14.19081  -11.99942
       O     6.38378  -13.62658  -12.37342
      H1     6.27033  -14.05675  -13.22243
       H    -0.65951   -6.93984  -11.72359
       O    -1.28615   -7.63338  -11.83153
      H1    -2.12837   -7.16370  -11.51807
       H     4.98122  -15.22897  -18.82417
       O     5.50808  -15.85573  -19.29492
      H1     6.02318  -15.25122  -19.85560
       H     3.23897  -16.44688  -16.58592
       O     4.12291  -16.73810  -16.44805
      H1     3.97694  -17.54446  -15.85486
       H    -1.64581  -10.27223  -17.90318
       O    -1.02295  -11.00670  -18.11913
      H1    -1.19151  -11.19553  -19.04356
       H     5.53154  -12.16463  -15.34291
       O     5.95797  -12.73733  -16.02962
      H1     5.96113  -13.52873  -15.47031
       H     3.49414   -5.64385  -18.63561
       O     4.07461   -6.08974  -19.27621
      H1     4.09389   -5.46965  -19.99704
       H     2.19980   -8.40438  -12.02948
       O     2.43136   -7.58310  -11.63067
      H1     3.37562   -7.42562  -11.65148
       H    -4.71090   -9.61882  -15.91520
       O    -5.20486   -9.78010  -16.72017
      H1    -5.96165   -9.19964  -16.94468
       H    10.92175  -12.24520  -17.53854
       O    10.65414  -12.78102  -18.31070
      H1     9.70826  -12.65471  -18.34876
       H     5.54217   -6.01908  -18.36587
       O     6.29572   -5.98306  -17.74483
      H1     6.94540   -5.40185  -18.16393
       H     9.17880  -10.16459  -14.00498
       O     9.53386  -10.40290  -14.87229
      H1     9.00237   -9.96487  -15.47022
       H     0.86438  -10.55150  -18.60573
       O     1.69790  -10.74667  -19.04843
      H1     2.41035  -10.57029  -18.37634
       H    -0.23311  -15.92936  -13.60313
       O     0.59625  -15.83813  -14.08687
      H1     0.68657  -16.70220  -14.52785
       H     1.39508  -14.91332  -16.47540
       O     1.81798  -15.29044  -17.25778
      H1     2.39378  -14.61538  -17.64660
       H    -3.42979   -5.56810  -17.01199
       O    -4.27761   -5.12027  -16.88200
      H1    -4.14750   -4.22623  -16.47200
       H    -1.76631  -12.81355  -17.45012
       O    -2.37697  -13.45899  -17.01539
      H1    -2.72323  -14.01965  -17.70201
       H     0.64397  -13.79135  -14.67549
       O     1.29334  -13.16876  -15.03432
      H1     0.73132  -12.40002  -15.15476
       H    -3.09474   -9.98275  -19.46367
       O    -3.15082   -9.35083  -18.70856
      H1    -3.93717   -9.39179  -18.21637
       H    -0.80095  -13.68794  -11.26515
       O    -1.11664  -14.08259  -12.10154
      H1    -1.52321  -13.34662  -12.52373
       H    -0.74816   -9.19283  -14.79802
       O    -1.21749   -8.41573  -14.42961
      H1    -1.05318   -8.44961  -13.46195
       H     2.10490   -9.04013  -19.56897
       O     2.07225   -8.12482  -19.84335
      H1     2.95705   -7.81164  -19.50879
       H    -4.18356   -8.01339  -14.37051
       O    -4.17083   -8.95194  -14.34691
      H1    -3.23399   -9.21136  -14.30986
       H    -6.32370  -12.46671  -18.75564
       O    -6.85804  -12.50282  -17.91666
      H1    -6.55929  -11.68495  -17.45851
       H     3.88029  -15.42065  -13.43645
       O     3.08171  -15.89379  -13.09910
      H1     2.36301  -15.81625  -13.74357
       H     5.03612   -9.08610  -17.83019
       O     5.96635   -8.84874  -18.07576
      H1     6.04689   -7.90537  -17.87128
       H     3.85326  -13.41783  -19.11999
       O     4.12515  -13.87004  -18.25304
      H1     4.83329  -13.41202  -17.78883
       H     2.42215  -13.55804  -11.16895
       O     2.53571  -13.55622  -10.22743
      H1     2.87853  -12.68182  -10.06571
       H     5.31215  -10.21991  -14.28495
       O     4.71996  -10.99607  -14.58576
      H1     4.27861  -11.35258  -13.82282
       H    -1.80621  -16.49697  -17.67270
       O    -2.73159  -16.73252  -17.97072
      H1    -3.25782  -17.00089  -17.15146
       H     7.82705   -9.22295  -17.72858
       O     8.72545   -9.63196  -17.63563
      H1     9.30693   -8.81693  -17.66033
       H    -2.82759  -14.92127  -20.23141
       O    -3.30206  -14.63564  -19.41478
      H1    -3.20977  -15.36574  -18.78898
       H     5.02286  -19.71040  -18.23552
       O     4.02360  -19.61358  -18.40148
      H1     3.81459  -18.69897  -18.26418
       H     2.68237   -9.00167  -16.84645
       O     3.33321   -9.69244  -17.10162
      H1     3.77749   -9.97036  -16.37097
       H     2.89859   -7.16654  -15.50699
       O     2.10704   -7.40705  -15.98608
      H1     1.51884   -6.68107  -15.98025
       H     7.52003  -12.11919  -17.60884
       O     7.93854  -12.65214  -18.30265
      H1     7.64839  -13.54457  -18.19238
       H     0.12859  -17.79194  -18.41659
       O     0.07793  -17.34896  -17.57906
      H1     0.76351  -16.67479  -17.56950
       H    -5.13936   -5.46353  -18.15009
       O    -5.78852   -5.84286  -18.83294
      H1    -5.30108   -6.02734  -19.66017
       H     1.03587   -6.89711  -19.15794
       O     0.54257   -6.17455  -18.70200
      H1     0.76188   -5.44057  -19.28158
       H     0.27273   -3.12381  -17.01407
       O    -0.14593   -3.99721  -17.10038
      H1     0.53194   -4.56638  -17.52023
       H    -3.20869  -12.69604  -14.13757
       O    -2.43874  -12.41563  -13.60825
      H1    -2.89758  -11.78333  -12.95689
       H     2.56643   -3.17018  -17.34008
       O     3.14738   -3.97010  -17.22500
      H1     4.03382   -3.53627  -17.41908
       H    -2.47829   -7.63446  -18.18473
       O    -2.26225   -6.72071  -17.86135
      H1    -1.32278   -6.60477  -18.05409
       H    -1.16309   -6.21943  -14.52201
       O    -0.76672   -5.32765  -14.46094
      H1    -0.59776   -5.12983  -15.41749
       H     4.42968   -6.12131  -13.26766
       O     4.18315   -6.79177  -13.94193
      H1     4.95152   -7.30537  -14.15125
       H     8.24278  -16.94963  -18.50855
       O     8.03139  -16.20531  -17.89408
      H1     7.13617  -15.95216  -18.20157
       H    -1.18498  -11.83291  -14.91521
       O    -0.55775  -11.23575  -15.35208
      H1    -0.63886  -11.40545  -16.27823
       H     2.48183  -12.75920  -13.59984
       O     3.02025  -12.35048  -12.93608
      H1     3.71122  -12.95198  -12.54213

