165
frame 9 | Written by MDAnalysis XYZWriter (release 2.4.3)
       H    18.00781  -13.72302   -6.63957
       O    17.97596  -14.03463   -7.54973
      H1    17.56530  -13.34810   -8.07786
       H    19.10298  -10.12133   -7.57915
       O    18.16503  -10.21072   -7.72484
      H1    17.76403  -10.24749   -6.86172
       H    11.71033   -9.55208  -11.42694
       O    11.77997   -8.94166  -10.71951
      H1    12.24495   -8.10321  -11.02384
       H    12.33343   -8.26533   -9.21727
       O    12.43276   -7.94862   -8.31279
      H1    13.26198   -8.37886   -8.03410
       H    18.00480   -5.42776   -3.62861
       O    18.71714   -6.08910   -3.81958
      H1    19.17183   -6.21123   -3.01720
       H    13.98749   -4.32550   -2.85953
       O    13.55869   -3.70963   -2.26856
      H1    13.30416   -4.33953   -1.56387
       H    12.90739   -1.96438   -9.16925
       O    12.05292   -1.48472   -8.92087
      H1    12.03799   -0.71688   -9.55618
       H    13.18811    0.92419   -6.85167
       O    13.53329    0.51284   -7.66142
      H1    12.96402   -0.20027   -7.72605
       H    17.32394  -12.26968   -3.80746
       O    16.54407  -11.81661   -3.40259
      H1    16.43865  -10.98836   -3.87927
       H    16.23105   -4.91300  -11.38745
       O    15.64775   -5.61973  -11.76476
      H1    15.92729   -6.44641  -11.29359
       H    14.95169   -5.21112  -13.50123
       O    14.69941   -4.98035  -14.37087
      H1    13.92172   -5.56228  -14.57324
       H    16.74175   -0.82050   -3.84648
       O    16.78140   -0.04327   -3.27050
      H1    15.92506    0.04160   -2.77201
       H    14.60168  -12.78554   -8.86718
       O    14.88322  -12.31171   -8.10637
      H1    15.78460  -12.02096   -8.51224
       H    11.18870   -4.59157   -9.57745
       O    11.06719   -4.83219  -10.55296
      H1    10.67980   -3.95727  -10.88067
       H    14.09106   -8.65232   -1.79206
       O    14.64239   -8.38484   -2.54355
      H1    15.27650   -7.75178   -2.30562
       H    12.38506  -10.73857   -5.08318
       O    12.45641  -11.46927   -5.74334
      H1    12.07113  -11.01817   -6.51046
       H    13.44081  -10.91304  -10.90594
       O    14.15973  -11.35170  -11.41642
      H1    14.24012  -12.19658  -10.97970
       H    10.89219   -2.48037  -12.01808
       O    11.35092   -2.57811  -12.83332
      H1    12.31289   -2.45308  -12.62445
       H    17.81976   -0.34390  -13.56777
       O    17.84623   -1.18779  -14.07668
      H1    18.54651   -1.76127  -13.74054
       H    14.30077   -2.51220  -10.68999
       O    14.38071   -2.63485   -9.71941
      H1    14.20475   -3.56614   -9.59697
       H    12.01187   -9.87502   -3.43003
       O    12.48179   -9.29407   -4.00574
      H1    13.30778   -9.11257   -3.48574
       H    14.52829  -10.51015   -8.26047
       O    14.83558   -9.56199   -8.31951
      H1    15.28664   -9.46437   -7.48074
       H    16.63877   -3.84184   -2.89998
       O    16.75217   -4.22467   -3.73227
      H1    15.95574   -4.73564   -3.97479
       H    16.91479   -2.92081  -12.09662
       O    17.37756   -3.15344  -11.28208
      H1    17.16596   -2.48451  -10.60498
       H    14.95605   -6.85828   -5.46953
       O    15.35592   -7.58812   -5.97579
      H1    15.87891   -6.99129   -6.53191
       H    17.17586   -2.26026   -8.47354
       O    16.96721   -1.53749   -9.11454
      H1    16.04818   -1.80213   -9.32607
       H     9.61278   -8.66626   -7.36516
       O     9.11917   -7.94062   -7.73293
      H1     9.79354   -7.50435   -8.22755
       H    18.15246   -2.66732   -2.12071
       O    17.30361   -2.41331   -1.80302
      H1    17.12121   -1.46011   -1.80640
       H    13.32390   -5.64953   -8.19189
       O    14.18171   -5.06975   -8.25541
      H1    14.00218   -4.46038   -7.51046
       H    13.40860   -2.14929   -5.73077
       O    14.00124   -2.20191   -6.57588
      H1    13.99002   -1.28497   -6.87574
       H    16.05927   -8.15360  -14.59999
       O    15.37084   -8.81400  -14.60010
      H1    14.94625   -8.69856  -15.45667
       H    11.50296   -4.27702   -7.04206
       O    11.23499   -4.12563   -7.96881
      H1    11.32604   -3.20894   -8.16046
       H    15.56597   -9.04043  -11.79693
       O    15.81048   -8.36720  -11.19429
      H1    15.55523   -8.58642  -10.30522
       H    19.34813  -11.85879   -5.31859
       O    18.85342  -12.64002   -4.96493
      H1    19.60089  -13.25364   -4.73209
       H    13.28029   -7.69105  -14.03602
       O    12.86784   -7.05972  -14.54468
      H1    12.96755   -7.46253  -15.41508
       H    19.64239   -0.32843   -5.23796
       O    19.68345    0.28534   -4.47319
      H1    18.77842    0.37458   -4.11808
       H    14.34360   -6.58468   -3.43648
       O    14.27151   -5.80952   -3.98113
      H1    13.32135   -5.61694   -4.12270
       H    18.74805   -6.97850   -8.78469
       O    17.91660   -7.10939   -9.27464
      H1    17.93129   -7.95308   -9.80070
       H    15.87548   -2.22529   -5.88787
       O    16.77251   -2.14697   -5.43407
      H1    16.89754   -2.94596   -4.91253
       H    18.75514  -10.02778  -11.23581
       O    18.35696   -9.14294  -11.15851
      H1    17.48587   -9.12275  -11.53696
       H    13.84717   -6.24948  -11.47949
       O    12.97511   -6.70717  -11.51215
      H1    12.28173   -6.03822  -11.27218
       H    17.66318  -11.18297   -9.07070
       O    17.14314  -11.99325   -9.43610
      H1    16.64016  -11.65142  -10.19016
       H    18.19953   -5.43603  -14.69999
       O    19.00891   -5.17493  -14.28658
      H1    19.63845   -5.57581  -14.94213
       H    16.49703   -6.66578  -16.18858
       O    16.66860   -6.57599  -15.25125
      H1    15.87018   -6.17709  -14.91453
       H    16.43516    0.13378   -8.37893
       O    16.20082    0.99272   -8.07895
      H1    15.21494    0.94776   -8.10142
       H    16.60788   -9.06099   -5.09631
       O    17.31131   -9.68170   -5.13206
      H1    18.14487   -9.15738   -5.12714
       H    14.05984   -1.84941  -13.54578
       O    14.17146   -1.68449  -12.61033
      H1    14.31004   -0.77944  -12.55402
       H    17.37354   -5.94561   -1.20596
       O    16.55991   -6.39271   -1.00540
      H1    16.83901   -7.19694   -0.43911
       H    11.45477   -9.73295   -8.21883
       O    10.89432  -10.12627   -7.56392
      H1    10.44380  -10.93281   -7.99977
       H    11.36800   -3.63499   -4.75264
       O    11.80287   -4.38318   -5.13881
      H1    11.04079   -5.04920   -5.26780
       H    17.56625   -2.98993   -6.77814
       O    17.93715   -3.39878   -7.61077
      H1    17.52316   -4.23275   -7.71093
       H    17.74557  -10.38987   -2.01282
       O    18.33262  -10.52152   -1.26454
      H1    18.57956  -11.46925   -1.16587
       H    17.02350   -6.35789   -8.00826
       O    16.65895   -5.76883   -7.30404
      H1    15.86020   -5.42999   -7.70493
       H    16.81713  -11.86560  -13.20874
       O    17.53244  -11.16886  -13.17489
      H1    18.10363  -11.40310  -12.43818
       H    11.57981   -7.80459   -4.15515
       O    11.24775   -6.96338   -3.75815
      H1    10.46416   -6.70892   -4.29298

