165
frame 0 | Written by MDAnalysis XYZWriter (release 2.4.3)
       H    -1.61240  -10.97287   -0.76307
       O    -1.57299  -11.59261   -1.46302
      H1    -1.59996  -12.44265   -1.11120
       H    -0.63418  -17.53922    0.63641
       O     0.30987  -17.60853    0.64851
      H1     0.60724  -16.94289    0.00814
       H    -0.19705  -13.56574    5.44148
       O    -0.22876  -12.66340    5.66544
      H1     0.59293  -12.53199    6.12539
       H     3.55159  -14.69156    0.97038
       O     3.67418  -15.07560    1.82992
      H1     4.17002  -15.85870    1.69345
       H    -5.94965  -17.72538    7.08327
       O    -5.43313  -17.24623    6.34812
      H1    -5.79332  -17.48754    5.43302
       H     1.46316   -6.42828    3.11763
       O     1.27667   -7.39852    3.02718
      H1     0.98910   -7.78906    3.83765
       H     3.77589  -10.34556    2.13672
       O     4.77986  -10.30379    2.08011
      H1     4.91302   -9.33718    2.10310
       H     1.34360  -10.28136    2.14628
       O     1.39164  -10.10920    1.19692
      H1     1.00520   -9.24388    1.18275
       H     5.43536  -12.24736    1.97462
       O     5.45103  -13.06861    2.42506
      H1     4.91291  -13.75421    1.99045
       H     3.41683  -20.19296    8.98378
       O     4.01831  -19.46238    9.24805
      H1     3.61175  -18.65766    8.97164
       H     4.80315  -14.00415   -1.07721
       O     3.94396  -13.79455   -0.68191
      H1     3.82144  -12.86653   -0.89164
       H    -0.44143  -14.87707    3.48054
       O     0.05245  -15.21745    4.23590
      H1     0.97701  -14.93972    4.00631
       H     5.19451  -18.98167    2.04985
       O     4.90857  -18.07094    2.29831
      H1     5.72033  -17.48611    2.42510
       H     4.51372  -12.73273    8.11635
       O     3.78653  -13.33445    7.84123
      H1     4.12882  -13.96420    7.26151
       H     6.50106  -14.98989    2.80744
       O     6.83921  -15.79212    2.40807
      H1     6.82035  -15.48483    1.44696
       H    -3.31091  -17.31839    3.94043
       O    -2.89986  -17.13341    4.75187
      H1    -2.21632  -17.84867    4.69948
       H    -2.67686  -16.41042    9.07166
       O    -2.64021  -15.46839    9.50062
      H1    -1.85446  -15.46254   10.07363
       H     4.96503   -9.31504    5.79412
       O     5.54454  -10.04593    6.07484
      H1     6.40208   -9.90976    5.59104
       H     3.27189  -17.43575    7.07798
       O     3.40431  -17.24695    8.01469
      H1     2.82311  -16.51223    8.28742
       H    -0.26776  -18.22130    8.36226
       O    -0.17220  -17.26063    8.22140
      H1     0.50293  -17.02192    8.81217
       H    -1.53905  -19.96950    2.77663
       O    -1.59610  -19.29674    3.43688
      H1    -0.72105  -18.89183    3.58686
       H    -2.43124  -17.25105    7.37110
       O    -3.21357  -17.54034    7.82903
      H1    -3.88048  -17.27085    7.12645
       H    -0.59478  -11.85915    8.03858
       O    -1.40281  -12.00882    8.59362
      H1    -1.95200  -12.63822    8.14829
       H    -4.92004  -13.96211   -0.59426
       O    -4.61885  -13.51549   -1.37134
      H1    -3.69594  -13.67564   -1.33787
       H     3.93698  -17.13398    5.16227
       O     3.50258  -17.97998    5.11213
      H1     3.20974  -17.98102    4.20364
       H    -3.29071  -10.23072    6.66393
       O    -2.39556   -9.97522    6.94915
      H1    -2.25943  -10.55905    7.71132
       H     4.78818  -11.60605    5.09500
       O     4.20670  -12.19054    4.65408
      H1     4.58762  -12.46003    3.80918
       H    -2.93056  -15.24257    4.72008
       O    -3.30396  -14.35493    4.73730
      H1    -4.16311  -14.46140    4.36226
       H    -6.27314  -13.22870    4.33980
       O    -5.91143  -13.53762    3.47178
      H1    -6.56313  -14.12585    3.14371
       H    -4.41973  -20.11417    0.55711
       O    -3.88488  -20.05265    1.38831
      H1    -4.08235  -19.18892    1.78758
       H    -1.75752  -14.33300   -2.37364
       O    -1.47185  -14.28540   -1.45107
      H1    -0.51468  -14.47388   -1.53228
       H    -1.48845  -10.53628    2.99347
       O    -2.06066  -10.88022    2.24687
      H1    -2.56586  -10.11078    1.98353
       H     3.36043   -7.96898    5.67528
       O     3.69782   -8.54357    4.93584
      H1     2.95490   -9.11586    4.67113
       H    -1.92791  -15.85681   -0.43891
       O    -2.22648  -16.11789    0.47863
      H1    -2.12375  -15.33216    1.02956
       H    -0.12865  -17.31913    6.59037
       O    -0.06823  -17.51728    5.60120
      H1    -0.03838  -16.63717    5.23317
       H    -3.38016  -17.04107    1.57454
       O    -3.95427  -17.39672    2.29847
      H1    -4.86596  -17.01463    2.27812
       H     3.49621  -17.30884   -2.94046
       O     3.29464  -16.38231   -2.66066
      H1     4.02780  -15.73629   -2.98599
       H    -0.53735  -11.03014    5.01025
       O    -0.33497  -10.32489    4.37320
      H1    -0.52294   -9.45886    4.69528
       H     1.79883  -16.05071   -1.64620
       O     1.11980  -15.68013   -1.11851
      H1     1.34917  -14.95318   -0.56461
       H     2.28752  -11.74528    7.53985
       O     1.36708  -11.61227    7.71685
      H1     1.26196  -10.68208    7.95593
       H    -1.18672  -17.53852   -2.72048
       O    -0.52719  -18.17280   -2.41128
      H1    -1.01501  -18.67439   -1.67261
       H     1.39104  -10.64245    4.00661
       O     2.30774  -10.65506    3.83178
      H1     2.86450  -11.24706    4.34743
       H     1.98510  -15.15947   10.44572
       O     1.66437  -16.07753   10.25493
      H1     2.13336  -16.62711   10.89517
       H     0.04161  -13.56039    1.08615
       O     0.92599  -13.39723    0.91506
      H1     1.03014  -12.43432    0.82365
       H     6.24591  -18.42222    6.88823
       O     6.40008  -17.45893    6.92151
      H1     7.08285  -17.41185    6.25478
       H     3.16403  -13.61915    4.31358
       O     2.80101  -14.50696    4.15683
      H1     3.02899  -14.71165    3.18851
       H     2.14229  -18.31338    0.44120
       O     2.93705  -18.76770    0.12892
      H1     3.68855  -18.57306    0.80746
       H     1.08524  -18.18424    4.28271
       O     1.16291  -18.48035    3.37417
      H1     0.60567  -17.95691    2.69697
       H     6.56177  -14.28266    8.39698
       O     6.87555  -14.45387    9.28917
      H1     7.47199  -15.18853    9.03949
       H    -2.27435  -13.27495    1.98328
       O    -1.78922  -13.96838    2.42929
      H1    -2.15182  -13.91273    3.34846
       H    -3.69686  -14.54815    8.39244
       O    -4.33504  -14.24717    7.73614
      H1    -4.02419  -14.60944    6.88608
       H     1.49379  -13.24071    9.92951
       O     2.38592  -13.52154   10.23204
      H1     2.86555  -13.45097    9.40352
       H     1.19723  -10.08529   -0.71992
       O     1.34700   -9.87030   -1.69349
      H1     1.98838   -9.16894   -1.72109
       H     0.23677  -15.45398   10.88048
       O    -0.54047  -15.01612   11.25474
      H1    -0.14355  -14.14244   11.40614
       H     6.88112  -13.69685    6.22756
       O     6.15933  -14.12735    6.70126
      H1     6.18047  -15.05782    6.52981

