165
frame 7 | Written by MDAnalysis XYZWriter (release 2.4.3)
       H    -7.64159   -8.36252  -17.64333
       O    -7.91671   -9.29721  -17.66568
      H1    -7.86862   -9.64629  -18.52516
       H   -14.16480  -13.59362  -17.02864
       O   -13.96654  -13.14894  -17.88487
      H1   -14.63557  -12.46797  -17.84254
       H   -18.37381  -14.03788  -11.39169
       O   -17.58979  -14.33291  -11.85303
      H1   -16.87201  -14.16833  -11.21083
       H   -10.67031  -16.08237  -16.90929
       O   -11.41124  -15.79417  -16.31837
      H1   -11.14512  -14.95099  -15.89752
       H    -9.36520  -12.97083  -18.35869
       O    -9.92172  -12.98282  -19.11184
      H1    -9.28522  -12.66205  -19.80727
       H    -5.68157  -18.47679  -16.13647
       O    -6.27117  -18.10531  -16.82007
      H1    -6.60033  -18.88303  -17.27088
       H    -7.47073  -15.59164  -14.28759
       O    -7.88403  -16.06162  -13.49145
      H1    -7.30467  -16.85155  -13.30080
       H   -11.87323  -16.85521  -11.90721
       O   -11.31581  -16.20511  -11.46140
      H1   -10.75955  -16.62578  -10.76489
       H   -10.88179  -10.73597  -13.32572
       O   -11.50299  -10.95496  -14.03362
      H1   -11.11487  -11.72788  -14.40751
       H   -14.72096  -16.49503  -19.02026
       O   -14.09694  -17.22684  -18.71901
      H1   -13.97635  -17.83114  -19.45675
       H    -9.03714  -13.98860  -11.83175
       O    -9.90114  -13.92523  -12.18019
      H1   -10.33779  -14.78882  -11.94805
       H   -12.65584   -9.67347  -13.74168
       O   -13.24955   -8.93742  -13.43252
      H1   -14.13313   -9.18883  -13.73078
       H    -7.16404  -15.44702  -11.96417
       O    -6.80327  -15.00538  -11.14950
      H1    -6.34923  -14.22486  -11.59091
       H   -10.53361  -13.06946  -10.59270
       O   -10.67680  -12.80691   -9.66936
      H1   -10.36357  -13.60654   -9.28524
       H   -13.12351  -17.42584  -14.66712
       O   -12.32897  -17.09709  -14.24479
      H1   -11.92177  -16.61769  -15.00900
       H   -16.83247  -15.25260   -8.14518
       O   -17.01123  -16.21314   -8.17735
      H1   -16.50373  -16.62291   -8.93217
       H   -17.79255  -13.54228  -17.13685
       O   -18.09388  -14.48585  -17.22711
      H1   -18.22195  -14.78461  -16.30645
       H    -7.94184   -9.43647  -15.89182
       O    -7.92820   -9.40352  -14.89570
      H1    -8.12479   -8.49444  -14.63428
       H   -14.38330  -11.09658  -15.77908
       O   -15.16173  -11.24669  -15.19690
      H1   -15.91243  -10.83089  -15.57507
       H   -17.48382   -7.14165  -16.56225
       O   -18.18163   -7.26034  -17.23615
      H1   -17.93542   -7.97214  -17.85253
       H    -5.76014  -15.37365  -14.76318
       O    -6.18328  -14.89937  -15.50709
      H1    -5.61055  -14.13945  -15.62075
       H   -10.68242   -9.61982  -19.22884
       O   -10.35353   -8.70206  -19.45474
      H1    -9.45406   -8.62942  -18.94106
       H    -9.91038  -13.31584  -14.17155
       O   -10.18776  -13.18221  -15.07396
      H1    -9.40340  -12.97759  -15.54227
       H   -15.69990  -10.75617  -18.93091
       O   -14.97834  -10.10946  -19.18036
      H1   -14.94954   -9.36468  -18.59528
       H   -15.59720  -10.09075  -11.88743
       O   -15.79396  -11.02937  -11.70303
      H1   -15.14599  -11.36197  -12.34678
       H   -14.96571  -12.95746  -15.00948
       O   -14.83341  -13.90644  -15.14275
      H1   -14.04770  -14.04503  -14.60273
       H   -12.35747   -8.73827  -16.61147
       O   -12.36756   -7.70356  -16.58474
      H1   -11.61928   -7.47481  -17.13572
       H   -17.30459  -17.74686  -19.00855
       O   -17.79543  -17.97589  -19.81407
      H1   -17.86897  -17.15393  -20.26628
       H    -5.90273  -18.53882  -11.92530
       O    -6.53144  -18.52701  -12.63218
      H1    -7.07679  -19.28035  -12.45844
       H    -4.42121  -18.19880  -17.97544
       O    -3.53771  -18.18084  -18.29749
      H1    -3.52898  -17.53001  -19.00698
       H   -12.47267  -10.85623  -19.55820
       O   -11.71215  -10.95301  -18.99385
      H1   -11.25841  -11.78046  -19.15909
       H   -17.63980  -11.62865  -18.10275
       O   -17.07111  -11.99576  -17.40386
      H1   -17.23520  -11.49570  -16.60956
       H   -15.99901   -8.02209  -14.01862
       O   -16.10549   -8.80933  -13.50303
      H1   -16.75270   -9.16612  -14.04157
       H    -9.01351  -10.74615  -12.06408
       O    -9.94977  -10.60441  -11.89801
      H1    -9.98838   -9.63991  -11.76562
       H   -15.07988  -14.59052  -18.71102
       O   -15.85308  -15.15128  -19.02625
      H1   -16.34319  -15.23530  -18.23679
       H   -15.11411   -6.09351  -17.47290
       O   -14.99204   -7.03581  -17.41514
      H1   -14.06477   -7.24734  -17.17858
       H   -16.67642  -17.11575  -16.66736
       O   -16.39414  -17.75143  -17.31920
      H1   -15.54815  -17.38775  -17.61434
       H   -19.21010  -12.80142   -9.66375
       O   -19.49821  -13.38995  -10.33055
      H1   -19.78798  -14.06522   -9.73012
       H   -12.66638  -12.96863  -12.34354
       O   -13.05073  -13.83949  -12.60310
      H1   -12.44092  -14.49728  -12.25616
       H   -16.55649  -15.43320  -12.96994
       O   -15.91345  -15.78237  -13.52877
      H1   -15.65471  -15.09488  -14.14107
       H   -18.46811  -12.56887  -14.04745
       O   -18.27472  -11.77208  -13.61985
      H1   -17.44335  -11.91735  -13.12116
       H    -9.52937  -17.86621  -17.86363
       O    -9.65057  -17.02631  -18.25507
      H1    -8.73340  -16.67027  -18.27982
       H   -12.99217  -19.07077  -11.91675
       O   -13.92127  -18.81496  -12.01232
      H1   -14.07058  -18.68458  -12.98028
       H   -18.84276  -18.28995   -9.71784
       O   -18.11528  -18.78294  -10.08749
      H1   -17.48642  -18.10827  -10.35543
       H    -6.60631  -16.49534  -18.02488
       O    -7.11887  -15.72453  -18.06832
      H1    -7.12531  -15.49511  -17.15329
       H    -6.54184  -13.90747  -18.63456
       O    -6.22522  -12.98462  -18.75373
      H1    -5.34958  -12.98162  -18.30624
       H   -18.24299  -10.29708  -14.96245
       O   -17.54804   -9.90570  -15.56086
      H1   -18.03337   -9.31070  -16.12213
       H   -10.69996  -17.93716  -14.02824
       O    -9.77408  -18.21916  -13.89851
      H1    -9.28772  -17.40044  -13.72711
       H   -18.42973  -16.94258  -15.17137
       O   -17.73174  -16.27641  -15.30856
      H1   -17.22709  -16.20730  -14.46734
       H   -19.30629  -19.51831  -15.32417
       O   -19.55598  -18.65829  -14.89883
      H1   -19.55270  -18.92566  -13.98005
       H   -15.16470  -18.91975  -14.91417
       O   -14.67593  -18.24016  -14.40832
      H1   -15.31755  -17.51765  -14.21070
       H   -14.73442  -17.70521   -9.93916
       O   -15.60087  -17.38210  -10.22510
      H1   -15.54517  -17.56716  -11.17667
       H    -7.41355  -12.26624  -17.68418
       O    -8.19030  -12.02536  -17.14638
      H1    -8.23097  -11.09811  -17.28501
       H   -14.48442  -14.27082  -10.89371
       O   -15.18483  -14.39229  -10.21080
      H1   -15.42050  -15.28161  -10.33664
       H   -12.12647  -10.60475  -17.13993
       O   -12.70048  -10.35675  -16.34044
      H1   -12.12093  -10.49715  -15.57920

