165
frame 8 | Written by MDAnalysis XYZWriter (release 2.4.3)
       H    14.84892    6.91680   -6.67467
       O    13.89441    7.06375   -6.52053
      H1    13.81909    7.94472   -6.09685
       H     2.88936   10.09796   -2.53630
       O     2.82088    9.62915   -3.37753
      H1     3.38529    8.86305   -3.36461
       H     7.70135   10.97117   -1.69117
       O     6.78579   10.75873   -1.85726
      H1     6.60523   11.05103   -2.74943
       H    11.25910    5.99603   -7.05809
       O    10.77423    5.61734   -6.26656
      H1    11.36593    5.45686   -5.53445
       H     8.45946    9.25215    4.01228
       O     9.00768    8.90763    3.23996
      H1     8.54922    9.27801    2.50633
       H    10.51890   11.09015   -7.82664
       O    10.90364   11.87626   -7.38833
      H1    10.54947   12.64748   -7.89486
       H     7.49458   12.31968   -5.62486
       O     8.27967   12.78606   -5.24378
      H1     7.97550   13.48989   -4.64300
       H     4.37649    6.69143   -4.25641
       O     4.62114    7.31946   -4.97114
      H1     3.97228    7.20356   -5.66303
       H    14.85508    3.20669   -5.80794
       O    14.57766    3.07623   -4.82930
      H1    13.89615    3.72601   -4.60170
       H    10.51555    8.00959   -2.83370
       O    11.16612    8.52291   -2.32405
      H1    10.67446    8.74214   -1.51293
       H    10.21934    4.18200   -2.13080
       O    10.53966    5.06403   -2.26210
      H1    11.34519    5.15089   -1.70099
       H     5.38407   12.45330    0.21573
       O     5.30526   11.48024    0.15214
      H1     5.80265   11.24487   -0.68806
       H    10.97985   11.40864   -3.94192
       O    10.11765   11.07358   -3.98912
      H1     9.63023   11.79709   -4.56142
       H     6.74530    2.88769    0.59127
       O     6.48148    3.56289   -0.06305
      H1     5.49738    3.72910   -0.00487
       H     9.16399    1.36834   -6.73086
       O     8.77349    0.74878   -7.37245
      H1     8.13891    1.21620   -7.93832
       H     6.08823    6.25356   -3.00542
       O     5.72217    5.38941   -3.06892
      H1     5.13602    5.30724   -2.27184
       H     6.99673    9.80001    0.36402
       O     7.75603    9.44357    0.84796
      H1     8.07352    8.70716    0.29118
       H     4.62450    4.01499   -7.63610
       O     3.71959    4.14958   -7.96036
      H1     3.19130    3.39499   -7.76436
       H     3.49324    7.56932   -1.12293
       O     3.67674    7.44323   -2.05187
      H1     3.37758    6.54556   -2.28005
       H    12.07237   11.58403   -2.38876
       O    12.62234   10.82977   -2.61946
      H1    11.98077   10.13663   -2.74388
       H     7.63074    7.07119  -10.22346
       O     7.56145    6.75465  -11.13844
      H1     6.65439    6.55419  -11.38329
       H    10.39033    8.27164   -9.69516
       O    10.42163    8.36510  -10.63475
      H1    11.03792    7.67544  -10.89353
       H     7.89705    6.53134    4.23597
       O     7.26811    5.97016    3.69799
      H1     7.36026    6.26793    2.80567
       H     6.30371    8.06838    1.01598
       O     5.50870    7.59292    0.67013
      H1     4.78306    7.82141    1.30814
       H     8.20546    7.94180   -1.62796
       O     8.67328    7.71848   -0.80469
      H1     8.22211    6.99307   -0.32663
       H     5.15409   11.62645   -3.73584
       O     5.22278   10.72597   -4.05243
      H1     4.32350   10.35067   -4.15113
       H    10.62767    1.77362   -1.61076
       O     9.87996    2.34742   -1.28989
      H1     9.00118    1.99535   -1.50828
       H    11.67002    4.08707    1.07991
       O    11.68392    3.90274    2.02661
      H1    11.03159    4.44225    2.46313
       H     6.79637    3.64166   -6.39570
       O     6.20422    4.11084   -7.02623
      H1     6.66109    4.98628   -7.08824
       H    10.25261    8.91293   -6.95913
       O    10.02404    9.05367   -7.88760
      H1     9.18471    8.59023   -8.10496
       H    11.76884    4.85613   -3.36457
       O    12.39124    4.69960   -4.11807
      H1    13.13162    5.32808   -3.92045
       H     7.85359    6.86168   -6.13997
       O     8.13321    6.05977   -6.66200
      H1     9.09073    6.09403   -6.49339
       H     7.81141    7.17689   -7.96416
       O     7.70306    7.85688   -8.67259
      H1     6.77922    8.14107   -8.46299
       H     5.70791   10.37317   -7.16648
       O     6.36081   10.73142   -6.48771
      H1     5.94355   10.81356   -5.63171
       H     7.18341    2.06231   -2.83967
       O     7.19085    1.72982   -1.93143
      H1     6.96397    2.52415   -1.34021
       H     9.53240   11.21496   -2.31632
       O     9.16479   11.59429   -1.49319
      H1     9.90489   11.69830   -0.84821
       H     2.46461    4.51024   -4.16976
       O     2.72634    4.86800   -3.33013
      H1     1.89861    4.90379   -2.76636
       H    13.91286   10.18170   -6.55869
       O    13.97925    9.82471   -5.70546
      H1    13.08788    9.79326   -5.37411
       H    11.07434    2.32599   -5.62572
       O    10.13486    2.69222   -5.75889
      H1    10.36485    3.63375   -5.98581
       H     4.97295    9.30427   -9.65850
       O     5.12229    9.22066   -8.69144
      H1     4.45320    8.53600   -8.36189
       H     6.05389    8.16771   -5.58148
       O     7.01069    8.29869   -5.65323
      H1     7.00125    9.18581   -6.01752
       H     3.66312    5.13707    0.34538
       O     4.31475    5.16578   -0.35748
      H1     4.73684    6.01951   -0.16549
       H     6.32322    8.64842   -2.59799
       O     6.86350    7.95011   -3.05605
      H1     6.98596    8.15547   -3.99674
       H     9.98987    7.44562    2.72257
       O    10.41520    6.74546    2.16356
      H1    11.34839    7.03280    2.04274
       H     7.84487   11.65211   -8.82825
       O     8.52757   11.09692   -9.23180
      H1     8.86305   10.38416   -8.66236
       H    15.69777    7.34435    0.03665
       O    14.77543    7.29706   -0.27463
      H1    14.66949    6.77032   -1.09949
       H    13.52440   10.07797   -0.94263
       O    14.39490    9.98820   -0.51806
      H1    14.61962    9.04900   -0.61909
       H     3.95644   11.43509   -1.09071
       O     3.08925   11.50777   -1.60173
      H1     3.13927   12.37136   -2.05018
       H    15.21274    6.31068   -3.56056
       O    14.39815    6.47383   -3.05169
      H1    14.20350    7.34639   -3.32052
       H     8.10907    3.39563   -5.00702
       O     7.24036    2.87975   -4.91700
      H1     6.65697    3.52538   -4.52542
       H     3.65784    6.11583   -7.51834
       O     3.42257    7.04284   -7.32549
      H1     2.47470    7.15976   -7.55754
       H    10.77017    7.81575   -5.08460
       O    11.04527    8.68935   -5.49549
      H1    10.50026    9.29770   -4.89649
       H    13.50611    4.39592   -1.10317
       O    12.86229    5.00054   -0.81946
      H1    13.16884    5.39073    0.02375
       H     7.89112    5.14241    0.58696
       O     8.13538    5.97780    1.01804
      H1     9.07860    5.89853    1.28075
       H     9.68722    6.13789   -3.42671
       O     9.40272    6.92973   -3.88367
      H1     8.59653    7.19922   -3.45027

