165
frame 10 | Written by MDAnalysis XYZWriter (release 2.4.3)
       H    13.22766    5.51054   16.54482
       O    13.14743    4.63296   16.86136
      H1    12.65169    4.12822   16.23279
       H     4.94697   11.84445   18.38968
       O     4.39217   12.13589   17.62051
      H1     4.95761   11.92378   16.85591
       H    10.58840    5.45070   17.87506
       O    11.07127    4.86597   18.49596
      H1    11.89825    4.70678   18.04752
       H     7.26903    9.06484   10.59184
       O     7.10562    8.11929   10.53292
      H1     6.86948    7.86647    9.61966
       H    16.14902    6.23822   10.79614
       O    15.24754    6.61219   10.73687
      H1    14.83332    6.48163   11.59125
       H     3.10940   10.38474   17.52593
       O     2.87802    9.47093   17.39863
      H1     3.72629    9.04938   17.27660
       H     5.30411   12.58193   14.58282
       O     5.78345   11.92353   15.20804
      H1     5.92571   11.05289   14.73096
       H     9.85293    8.92819   19.52459
       O     8.98527    8.72124   19.18696
      H1     8.69761    8.06829   19.81151
       H    13.29943   17.79929   16.76302
       O    13.65894   17.59787   15.86860
      H1    13.91186   16.65976   15.87159
       H     4.10468   14.49925   14.01610
       O     4.34319   13.64297   13.69394
      H1     4.76995   13.68406   12.85528
       H    12.70352   14.53270   18.04967
       O    12.79630   14.40864   19.00804
      H1    13.22964   13.54656   19.18414
       H     8.87873   10.96465   17.56670
       O     8.30156   10.29980   17.17667
      H1     8.47464    9.57950   17.80601
       H    11.33168    8.84369   11.29616
       O    11.85664    9.54155   11.67967
      H1    12.11758   10.13280   10.92869
       H    13.06404   11.72049    9.22225
       O    12.25551   11.46362    9.69518
      H1    11.66422   12.23526    9.93208
       H     3.76700    6.41248   14.24836
       O     4.14178    7.20876   14.59437
      H1     3.30705    7.66340   14.77367
       H    14.08849   11.15776   11.48886
       O    14.72409   10.57774   11.00550
      H1    14.34089   10.35855   10.09930
       H     9.23877    6.74910   16.32384
       O    10.12572    6.46325   16.12985
      H1     9.97457    5.93176   15.32850
       H     7.44527   15.70480   13.78030
       O     7.99335   15.32816   14.46927
      H1     8.00795   14.39444   14.47014
       H    14.17234    8.82895   13.80018
       O    13.26562    8.90977   14.12297
      H1    12.66851    8.79159   13.33742
       H    11.37280   14.41297   15.69403
       O    11.47445   13.83194   16.48557
      H1    12.27683   13.33306   16.27662
       H     6.85814    6.29019   16.14200
       O     7.55874    6.58545   15.57084
      H1     7.28113    6.20744   14.70744
       H    15.13026    7.71725   17.72773
       O    16.05838    7.39927   17.74834
      H1    16.14486    6.93398   16.88501
       H     5.28768    7.39402   13.14678
       O     5.58930    6.96966   12.32526
      H1     6.27524    7.48169   11.82085
       H     8.90403   12.10552   15.37275
       O     8.27344   12.62377   14.84455
      H1     7.42364   12.32297   15.17444
       H     5.91266   13.68152   10.75004
       O     5.79644   12.73477   10.96951
      H1     5.10589   12.52001   10.36732
       H    14.02617   11.59176   15.75648
       O    13.17388   11.44832   15.36079
      H1    13.07864   10.51757   15.08137
       H     6.28872    4.17681   14.09856
       O     6.67232    4.87677   13.53678
      H1     6.09367    5.61450   13.23545
       H    10.14343    6.79398   10.97175
       O     9.87875    7.57260   10.41836
      H1     8.95428    7.70847   10.60237
       H    10.00793   12.96294   18.87445
       O    10.18354   12.15555   18.36419
      H1    10.94754   12.34218   17.74215
       H     7.16856   11.60376   10.66827
       O     7.76290   10.80428   10.84130
      H1     8.64068   11.19307   10.95352
       H     6.65399   11.98280   19.84906
       O     6.41564   11.35781   19.18068
      H1     7.19030   11.19777   18.57628
       H     9.33975   11.89076   13.47251
       O     9.93515   11.64648   12.71666
      H1    10.36715   10.94516   13.14069
       H    15.38869   14.73450   12.93373
       O    14.50935   14.89598   13.30289
      H1    13.99382   14.10918   13.07401
       H    17.17524   12.82066   18.67261
       O    16.58010   12.10144   18.36886
      H1    16.23635   12.21232   17.48805
       H     7.77844   16.49292   15.80338
       O     7.58433   17.26536   16.36461
      H1     6.73824   17.05566   16.83167
       H    13.28169    6.58683   13.67624
       O    13.46274    6.24432   12.78802
      H1    13.37918    5.27028   12.81341
       H     3.57649    8.94603   11.87511
       O     4.20852    9.57311   11.68071
      H1     4.85003    9.60272   12.42932
       H     9.73391   16.37208   18.25143
       O     9.84565   17.34907   18.12172
      H1     9.16953   17.42848   17.44729
       H    10.64225   14.53440   11.03417
       O    10.57525   13.54352   11.00726
      H1    10.39211   13.27281   11.92403
       H    17.82853   10.08293   11.17530
       O    17.43410   10.96887   11.46161
      H1    16.48873   10.81875   11.56086
       H     9.77512    5.07144   13.04251
       O     9.45435    4.78655   13.93051
      H1     8.51718    4.67010   13.80105
       H    13.70555   16.50217   12.49115
       O    13.24417   17.16208   11.95882
      H1    13.71562   17.13502   11.11990
       H    14.67028   14.80005   14.99555
       O    14.61696   14.87406   15.98455
      H1    15.54470   15.08036   16.19715
       H     5.17535    7.28935   17.27429
       O     5.29353    8.18077   17.65323
      H1     6.14908    8.53259   17.34891
       H    11.99872    6.98939   16.00351
       O    12.92636    6.95583   15.84820
      H1    13.10408    7.78035   15.35004
       H    10.91958    4.75930   11.03051
       O    10.91568    5.44543   11.70226
      H1    11.78473    5.70972   11.95955
       H    16.87800    5.70761   14.66152
       O    17.08507    6.55369   15.03056
      H1    16.64819    7.16857   14.40988
       H     6.86028    8.84289   14.73546
       O     6.48928    9.51135   14.14192
      H1     7.10351    9.49204   13.42654
       H    16.30561   11.48922   15.19997
       O    15.75231   12.15119   15.67128
      H1    15.60227   12.83321   15.00635
       H    12.39045   12.53991   12.41802
       O    13.30198   12.54777   12.74227
      H1    13.20905   12.19186   13.64017
       H     9.91846   15.27855   14.07117
       O    10.83920   15.44572   14.11455
      H1    10.91339   16.27629   14.61057
       H    15.48980    8.83579   12.60772
       O    15.85891    8.61929   13.51629
      H1    16.44655    9.37281   13.78333
       H    11.26661   10.83161   15.91869
       O    10.42906   10.75669   15.48196
      H1     9.72425   10.45417   16.13943
       H    14.33355   10.05291   18.97673
       O    14.26148    9.14383   18.63182
      H1    13.98222    8.57823   19.33390
       H    10.83912   18.57375   15.79132
       O    11.14679   17.99663   15.08733
      H1    12.06964   17.89733   15.40115

