165
frame 5 | Written by MDAnalysis XYZWriter (release 2.4.3)
       H     8.20175    8.24376  -11.96654
       O     9.18162    8.39167  -11.68247
      H1     9.30889    8.72602  -10.78920
       H    12.03972    9.24038  -14.25990
       O    12.02364    9.98990  -14.84526
      H1    12.82136   10.54079  -14.65639
       H    14.65168    2.74963  -17.29208
       O    15.54535    3.00250  -17.55885
      H1    15.50404    3.23835  -18.50865
       H    12.73242   12.14117  -18.11500
       O    13.53379   12.60718  -17.91160
      H1    13.62071   12.36397  -16.97537
       H    15.85112   13.83290  -17.19844
       O    16.10380   13.78573  -16.20795
      H1    15.57405   13.10438  -15.78161
       H    18.72771    5.88417   -9.87135
       O    19.03854    6.75399   -9.67669
      H1    18.96123    7.20955  -10.58894
       H    12.77453    1.41093  -17.06116
       O    13.32677    1.84497  -16.36693
      H1    13.80280    1.10072  -15.97989
       H    17.80283   15.93550  -13.17124
       O    17.04138   16.21876  -12.69655
      H1    17.05723   15.63838  -11.93331
       H    14.00003   11.53301  -11.63948
       O    14.70712   12.00512  -12.14846
      H1    14.39433   12.95268  -12.14381
       H    16.67227   11.64065  -11.98641
       O    17.55731   11.33095  -12.23005
      H1    18.14926   11.95063  -11.76457
       H    15.07286   10.04108   -8.66326
       O    14.98889    9.79834   -9.59650
      H1    14.13086   10.17154   -9.89677
       H    16.88899   16.35818  -14.91469
       O    16.79010   16.87061  -15.76414
      H1    15.85742   16.68246  -15.91269
       H    18.85594   14.79325  -18.82359
       O    19.10890   13.94911  -19.19471
      H1    19.94317   13.69070  -18.71196
       H    13.28090    6.41772  -15.70375
       O    13.73284    7.00680  -16.34574
      H1    14.30186    6.42580  -16.82826
       H    12.34453    4.45312  -12.74644
       O    12.68203    4.56638  -11.87562
      H1    12.36846    5.40115  -11.59393
       H    11.25105   12.49792  -11.46305
       O    10.58467   12.94142  -12.01671
      H1    10.38432   12.20062  -12.63832
       H    11.74426   10.54729  -10.43300
       O    12.34012   11.32810  -10.46479
      H1    12.27920   11.68823   -9.52825
       H    18.05080   12.76548  -15.55350
       O    18.95560   12.75034  -15.19004
      H1    19.06387   12.09501  -14.48159
       H     7.69096    8.39439  -16.58166
       O     8.68320    8.31529  -16.46229
      H1     9.01459    8.34591  -17.37688
       H    17.71234   10.38559  -17.66705
       O    16.83239   10.59802  -17.81800
      H1    16.74782   11.53050  -17.91669
       H    11.13661    6.13279  -14.68827
       O    11.99662    5.64497  -14.70259
      H1    11.70796    4.64716  -14.80832
       H    13.65946    8.69443  -12.52926
       O    12.69500    8.74831  -12.46692
      H1    12.46645    8.05697  -11.82612
       H     8.91095    4.38833  -14.06727
       O     9.22626    4.80892  -13.27062
      H1     9.64172    5.63860  -13.65324
       H    14.56309    8.58305  -15.94789
       O    15.08443    9.38906  -15.79914
      H1    15.50332    9.64726  -16.61251
       H    14.57168   10.86625  -15.11743
       O    14.36642   11.84145  -14.85845
      H1    14.53831   11.90471  -13.93937
       H    11.44369   15.18857  -18.39088
       O    10.76941   14.81727  -18.99422
      H1    10.47743   15.52908  -19.54178
       H     9.46299   13.90079  -18.06109
       O     9.00169   13.40941  -17.36814
      H1     8.82169   14.12335  -16.69233
       H    10.06647    5.18249  -18.36528
       O     9.36951    4.71910  -17.92044
      H1     9.72968    4.38604  -17.09460
       H    13.48641   14.92362  -18.18748
       O    13.06470   15.74129  -17.94168
      H1    13.53205   16.38663  -18.53330
       H    12.87070   16.43002  -14.19324
       O    12.19716   16.50438  -13.46513
      H1    11.33432   16.50612  -13.86196
       H    18.60994   12.84996   -9.90374
       O    18.93535   13.02558  -10.79226
      H1    19.13883   14.00612  -10.83401
       H     9.50482    9.89303  -19.64237
       O     9.90469    9.24637  -19.01019
      H1    10.31115    9.86205  -18.43792
       H    16.00563    4.88368  -17.16842
       O    16.05875    5.81296  -17.34682
      H1    16.49323    5.85466  -18.16344
       H    18.12254    7.10535  -13.20105
       O    18.68661    6.89641  -12.44926
      H1    18.94147    5.95440  -12.64588
       H    15.48973    8.03876  -11.51496
       O    15.40818    7.88472  -12.45607
      H1    16.13597    8.37058  -12.89511
       H    10.65177   10.39393  -14.01577
       O     9.84698   10.72105  -13.50500
      H1     9.62495   10.05988  -12.85306
       H    17.38584    5.33377  -14.95239
       O    17.16526    4.42665  -14.64034
      H1    16.23657    4.38164  -14.75035
       H    19.08880    6.43924  -18.22450
       O    18.52125    6.22214  -18.96112
      H1    18.89621    6.85685  -19.65671
       H    11.36970    6.27432   -9.85035
       O    12.12641    6.85646  -10.00359
      H1    12.68455    7.09173   -9.23491
       H     9.26452    8.08054  -14.79363
       O     9.78840    7.51486  -14.20424
      H1     9.87436    7.94509  -13.31297
       H    16.72594    3.52519  -12.91321
       O    16.30811    2.85174  -12.31992
      H1    15.75290    3.49663  -11.83406
       H    12.09267    2.42617  -15.19529
       O    11.52369    2.94382  -14.53625
      H1    10.61467    2.60004  -14.79214
       H    17.12103    9.42556  -10.13551
       O    18.01547    9.68921  -10.33319
      H1    17.87352   10.38473  -10.94983
       H    19.96337   15.80756  -14.23393
       O    19.10754   15.45188  -14.28361
      H1    19.18216   14.57153  -14.71107
       H    17.05030    6.81461  -16.04066
       O    17.74846    6.97029  -15.37992
      H1    17.73877    7.93860  -15.24266
       H    12.10032   13.77468  -12.15668
       O    12.99285   14.18784  -12.21746
      H1    12.78692   14.97166  -12.78412
       H    13.34190    7.20030  -17.95802
       O    13.33637    7.20568  -18.91850
      H1    12.49297    6.84198  -19.22524
       H    13.93693   17.61606  -15.26069
       O    13.97636   16.61867  -15.28916
      H1    13.59609   16.26538  -16.06927
       H    10.41847   11.58845  -17.14277
       O    11.21079   11.04220  -17.30408
      H1    11.48004   10.51423  -16.50224
       H    15.47719    5.62153  -11.96741
       O    15.36444    5.02985  -11.16558
      H1    14.36390    4.92234  -11.10224
       H     8.82473   11.01395  -14.97029
       O     8.21935   10.82608  -15.66528
      H1     8.44124    9.93779  -15.94717
       H    17.53231   10.17782  -13.31836
       O    17.37009    9.47222  -14.00998
      H1    16.89933    9.91211  -14.69670
       H    17.23237    6.69833   -9.29667
       O    16.30339    6.64735   -9.02617
      H1    15.88905    6.20010   -9.75820
       H    18.40491    1.64016  -17.26821
       O    17.53370    1.36447  -16.89013
      H1    16.84969    1.98061  -17.22777
       H    16.07641   14.12299  -19.55824
       O    16.43204   13.57273  -18.87159
      H1    17.33344   13.44005  -19.05544

