165
frame 6 | Written by MDAnalysis XYZWriter (release 2.4.3)
       H     8.91317   18.92766   12.55791
       O     8.59219   18.07374   12.29121
      H1     8.04857   17.74547   12.99757
       H    15.44677   19.69066   19.85744
       O    15.55647   18.79872   19.57610
      H1    16.31464   18.78281   18.98093
       H    13.61400   19.89183   11.48840
       O    13.70277   19.69550   12.42881
      H1    13.59766   18.75893   12.50020
       H    11.00840   19.02874   15.51393
       O    11.22587   18.30105   14.91219
      H1    12.12301   18.03593   15.13138
       H     7.37940   19.11292   15.38139
       O     6.85680   19.63494   14.74932
      H1     5.92032   19.43198   14.92194
       H    11.37739   14.19200   18.15880
       O    10.49249   14.20068   18.46911
      H1    10.56038   14.06945   19.39054
       H     7.68735   15.68770    8.80448
       O     7.20234   14.94127    9.23384
      H1     6.55402   14.71509    8.55105
       H    17.47710   18.87064   12.39216
       O    17.90357   18.01238   12.35907
      H1    18.85192   18.12681   12.44729
       H    12.43752   13.90458   16.28265
       O    12.93631   14.25671   17.08867
      H1    13.30626   13.44745   17.49626
       H    11.78601   11.46133    9.10090
       O    10.92694   11.55373    9.49815
      H1    10.94901   12.42766   10.00112
       H    14.36893   17.33438   19.72362
       O    13.66892   16.65594   19.51073
      H1    13.15326   17.02322   18.82702
       H     4.18009   18.92605    9.66107
       O     5.03940   19.42351    9.56793
      H1     5.40126   19.35364   10.47096
       H    14.42574   16.99929    8.74221
       O    14.33524   16.85817    9.70742
      H1    15.21753   16.46191    9.80766
       H     5.48184   18.14533   12.49758
       O     5.44091   17.29350   12.93969
      H1     5.56562   16.53884   12.27705
       H     6.46946   16.60778   14.19857
       O     7.24462   16.12096   14.60203
      H1     7.12042   15.18087   14.39294
       H     8.98009   19.76173    9.57465
       O     8.81217   18.80943    9.58525
      H1     8.70400   18.55379   10.49456
       H    13.27994   18.10927    4.12879
       O    14.17198   18.06423    3.65199
      H1    14.74653   18.73615    4.10508
       H     9.97432   16.93461   12.36690
       O    10.64029   16.26503   11.91792
      H1    11.56642   16.44738   12.25857
       H    18.58536   19.39305   18.37644
       O    18.45584   18.50858   18.06028
      H1    18.10910   18.57614   17.13821
       H    11.13907   17.32099   10.53838
       O    11.45863   18.02611    9.88775
      H1    10.61873   18.39593    9.56257
       H    16.63580   14.63375    9.06410
       O    16.67250   15.47471    9.53624
      H1    16.97714   15.16772   10.44886
       H    10.56766   14.08349   15.07708
       O    11.08845   13.26967   15.32349
      H1    11.76955   13.20071   14.61883
       H    14.93491   14.47829   17.92257
       O    15.44102   15.22558   18.04654
      H1    14.86573   15.73789   18.64606
       H    12.40924   19.21021   17.44779
       O    12.44950   18.44308   17.99370
      H1    11.50249   18.06302   17.97703
       H    14.26696   17.79824    6.59517
       O    14.89306   17.17661    6.91528
      H1    15.78424   17.62381    6.77635
       H    10.62540   14.51371    5.15974
       O    11.01598   13.66711    4.90209
      H1    11.72756   14.03529    4.33245
       H     8.27888   17.96544    8.06383
       O     8.08725   17.38437    7.29498
      H1     7.63780   17.95892    6.63658
       H    17.79935   17.46371    3.16533
       O    17.47447   18.14707    3.72347
      H1    16.51229   18.18376    3.40458
       H    17.00637   16.62989   16.39175
       O    16.68041   17.47426   15.97116
      H1    15.77876   17.31107   15.65595
       H    16.66099   11.89429    9.24776
       O    16.20053   12.35768    8.53481
      H1    16.84650   12.26202    7.82915
       H    14.54607   13.30257    6.21747
       O    14.30373   12.55948    5.69115
      H1    13.74116   12.02013    6.23413
       H    19.23907   14.17498   14.14334
       O    18.69644   13.46789   14.56236
      H1    18.90916   12.74573   13.92528
       H     9.39358   16.44015    6.21394
       O     9.72542   15.83763    5.49476
      H1     8.94715   15.55295    5.01387
       H    12.74470   19.30800    9.93275
       O    13.64198   19.72902    9.78285
      H1    14.11403   18.92621    9.81881
       H    17.21398   19.87158    7.50195
       O    17.20275   19.30753    6.74326
      H1    17.45419   19.89157    6.00133
       H    14.34531   11.81214    8.75973
       O    13.65308   11.17734    8.44778
      H1    14.19623   10.70982    7.82037
       H    18.08145   14.33718   16.14771
       O    18.05783   15.15463   16.72117
      H1    17.19938   14.96475   17.14890
       H    18.69204   19.75196   15.42901
       O    19.62730   19.99835   15.69421
      H1    20.05517   19.21239   15.98446
       H    11.49022   18.14368    5.14842
       O    11.33724   18.57239    4.31618
      H1    10.85593   17.92951    3.76516
       H    15.63810   14.66990   13.18840
       O    14.88908   14.68707   13.82925
      H1    14.31766   13.92469   13.54193
       H    11.82024   17.21833    7.86338
       O    11.92582   17.10220    6.88939
      H1    11.45123   16.26453    6.74191
       H     7.79745   17.24244   16.11713
       O     8.09928   18.05779   16.41836
      H1     7.61932   18.13775   17.29110
       H     6.05337   15.04225   10.82615
       O     5.33538   15.09314   11.44132
      H1     4.61290   15.42129   10.94730
       H    10.42546   16.04987   18.25088
       O    10.09263   16.96928   18.21902
      H1     9.72639   17.07970   17.30082
       H    10.47218   14.50795   11.48724
       O    10.78427   13.62212   11.45427
      H1    10.04120   13.04702   11.61045
       H    17.51110   16.90797    8.79657
       O    18.22048   17.45360    8.29156
      H1    17.77041   18.22227    7.76075
       H    13.88496   16.08715   13.12370
       O    13.44238   16.78670   12.55165
      H1    13.72704   16.54306   11.67587
       H    13.78191   16.03475   15.80197
       O    13.72046   16.99508   15.75076
      H1    13.38363   17.28231   16.59625
       H    15.75848   15.54509    6.75592
       O    16.17786   14.67187    6.72439
      H1    16.56955   14.61958    5.82677
       H    16.12610   12.02610   14.83413
       O    15.57304   12.34255   15.54547
      H1    15.28123   13.20495   15.26400
       H    12.02554   13.28339   12.65259
       O    12.67785   12.84598   13.20627
      H1    12.59465   11.95230   12.91622
       H     9.05225   15.91048   14.65155
       O     9.95713   15.76895   14.89196
      H1    10.42005   16.44728   14.42579
       H    17.06192   16.01249   12.77850
       O    17.07075   15.13887   12.43393
      H1    17.67981   14.63544   13.03547
       H     6.48541   19.13822    5.31862
       O     7.35808   18.77615    5.12124
      H1     7.95915   19.52116    5.14799
       H    10.85301   19.07803   13.50531
       O    10.84345   19.79433   12.83094
      H1    11.76251   20.10752   12.76886

