165
frame 1 | Written by MDAnalysis XYZWriter (release 2.4.3)
       H    14.63501  -12.81357    4.15199
       O    13.75875  -12.66009    3.66168
      H1    13.24280  -13.47531    3.81306
       H     8.94521  -11.23697   10.89047
       O     9.52818  -11.94522   11.15608
      H1     8.97168  -12.64503   11.55728
       H    12.18797   -6.50164   11.29914
       O    11.24670   -6.31871   11.18884
      H1    11.14804   -5.34608   11.27282
       H     4.35122   -8.74843    3.81817
       O     5.07490   -8.54632    3.24469
      H1     4.65943   -8.12095    2.47615
       H     5.52984   -9.65061    8.76683
       O     5.62701   -9.86007    9.72482
      H1     6.57518   -9.79997    9.97514
       H    11.31032  -15.15302    3.33131
       O    11.59068  -14.71504    4.14551
      H1    11.98705  -15.46944    4.56782
       H     8.50753   -9.67635    6.40418
       O     7.77870   -9.73504    5.75873
      H1     8.33163   -9.76865    4.90937
       H     7.51440   -9.82209   11.73283
       O     7.92917   -9.58476   10.91357
      H1     8.52575   -8.84894   11.23455
       H     5.91429   -6.95085    3.84585
       O     6.23463   -6.06475    3.66165
      H1     5.41790   -5.45830    3.92748
       H     7.21892   -6.27977    5.08621
       O     7.76895   -6.84066    5.71954
      H1     7.39691   -7.73005    5.66392
       H     9.23054  -14.31141    6.30247
       O    10.13057  -14.46885    6.56883
      H1    10.58716  -14.48116    5.70595
       H    14.26887   -7.21272   12.12042
       O    13.78956   -7.32143   11.26952
      H1    14.25070   -6.87909   10.55726
       H     5.12472   -4.33869    8.80402
       O     5.83196   -4.51498    9.42113
      H1     5.41067   -5.12892   10.04547
       H    14.05900   -5.76204    4.57283
       O    13.50121   -5.61730    5.32431
      H1    13.32980   -6.40313    5.90206
       H    14.07751   -9.26411    6.18629
       O    14.81874   -9.84773    6.34525
      H1    14.62822  -10.17542    7.23475
       H     5.33888  -13.20813   11.58627
       O     5.66096  -14.14073   11.71805
      H1     5.96021  -14.47051   10.83918
       H    11.94038   -4.90210    8.34176
       O    12.60205   -4.29619    8.81295
      H1    13.00909   -3.81802    8.13105
       H    14.29721   -9.82011    3.43340
       O    14.90438   -9.30174    2.94937
      H1    15.01455   -8.44983    3.40755
       H    13.44533  -13.99353    9.51613
       O    13.39631  -13.13654    9.12487
      H1    12.47254  -12.88562    9.05328
       H    12.60627  -10.40934    5.14287
       O    11.92041  -10.49960    4.44480
      H1    12.05096  -11.39570    4.08951
       H    13.69338   -9.09008    9.86200
       O    13.79457   -9.71537    9.14848
      H1    13.44174  -10.50898    9.57549
       H     9.38213   -6.95959    5.08736
       O    10.34958   -6.94182    4.99215
      H1    10.57849   -7.66382    4.40594
       H     4.38569  -11.77895    8.43747
       O     3.94608  -12.59237    8.21134
      H1     4.63026  -13.21394    7.78470
       H     7.19256   -5.41270    8.37753
       O     8.10956   -5.66250    8.10416
      H1     7.96489   -6.03614    7.22169
       H     4.70998   -9.06670    6.58041
       O     5.13135   -9.80917    7.06603
      H1     6.01185   -9.79926    6.71658
       H     7.01860   -6.27662   13.66143
       O     7.20548   -6.29591   12.71355
      H1     8.12423   -6.70427   12.70666
       H     9.27277   -9.82650    2.35262
       O     9.35340  -10.08639    3.29047
      H1    10.24142  -10.23606    3.58153
       H    10.85850  -11.61471   12.46443
       O    11.39719  -11.45382   13.21494
      H1    12.22293  -11.92474   13.05816
       H     9.49125   -8.84402   12.83693
       O     9.32528   -7.99422   12.47065
      H1    10.12606   -7.49269   12.37698
       H    13.92471   -5.52381    9.01118
       O    14.72750   -6.04704    9.16105
      H1    14.94267   -6.44171    8.29311
       H    14.66171  -12.84975    7.64600
       O    15.47765  -12.72891    7.20462
      H1    16.02665  -12.19624    7.75295
       H     3.62709   -7.30274   10.15331
       O     2.72771   -7.54583    9.72871
      H1     2.12886   -7.10827   10.35225
       H     4.94771  -11.73603    5.74344
       O     4.77998  -12.59811    5.32109
      H1     5.05842  -12.51454    4.42142
       H     9.62630   -4.35647    3.70843
       O    10.30434   -4.08359    4.35036
      H1    10.72080   -4.96195    4.63228
       H     7.51122  -12.27816   13.15882
       O     7.77957  -13.16042   12.80798
      H1     7.04957  -13.55502   12.23513
       H    12.75419   -8.14795    7.50184
       O    12.60832   -8.09703    6.51239
      H1    11.71629   -7.77332    6.45847
       H     2.74222   -7.96506    6.08146
       O     3.06684   -8.56894    5.42016
      H1     2.62630   -8.36570    4.57051
       H     4.58011   -5.24882   11.93858
       O     4.87300   -6.07228   11.50053
      H1     5.77614   -6.28796   11.83570
       H    14.67106  -11.25368   12.24316
       O    14.30177  -12.12053   12.17037
      H1    14.58528  -12.37095   11.30392
       H     4.54033  -11.26459   10.61900
       O     4.22704  -11.83685   11.29222
      H1     3.60341  -12.45167   10.93168
       H     2.71303  -11.07348    7.50582
       O     2.00094  -10.73948    6.95674
      H1     2.39709  -10.01563    6.42077
       H     7.93079  -13.51895    4.66337
       O     7.68699  -14.11809    5.40679
      H1     7.34873  -14.89051    4.96366
       H    12.22054   -6.83142    2.77788
       O    11.54832   -7.26290    2.18646
      H1    12.11041   -7.78071    1.57215
       H     9.65329   -7.07529    8.47967
       O    10.59143   -7.29360    8.59704
      H1    10.78715   -6.96798    9.45788
       H     9.56160   -9.87438   15.36046
       O     9.23275  -10.44610   14.67649
      H1     9.98256  -10.83930   14.24783
       H     7.39252  -10.39944   13.89718
       O     6.75385  -10.41180   13.18576
      H1     5.88333  -10.64157   13.58076
       H    15.60126   -8.50707    6.81702
       O    15.91657   -7.57531    7.04805
      H1    16.86894   -7.82904    7.15358
       H     6.67176  -15.10680    8.72571
       O     7.24240  -14.87518    9.50960
      H1     7.62435  -15.71172    9.69287
       H     8.68343   -4.40842    7.35988
       O     9.01987   -3.61547    6.82450
      H1     9.38638   -3.87223    6.00531
       H     8.99422  -11.93848    3.24185
       O     8.95211  -12.90128    3.21066
      H1     9.14631  -13.16086    2.29458
       H    10.94162  -16.13562    7.07525
       O    11.23266  -17.03471    6.93340
      H1    12.04953  -17.18672    7.35416
       H     9.68171   -4.05540   10.04505
       O    10.05105   -3.98677   10.89988
      H1     9.27864   -3.99602   11.52626
       H     6.05397  -14.28872    6.73766
       O     5.52456  -14.85931    7.27718
      H1     5.90505  -15.75484    7.13406
       H    10.17044  -12.17744    9.41360
       O    10.67319  -12.23645    8.58360
      H1    10.36912  -12.96676    8.02675
       H     9.93956   -9.13627    8.45353
       O     9.37494   -9.79217    8.06165
      H1     9.83528  -10.62474    8.18943

