165
frame 1 | Written by MDAnalysis XYZWriter (release 2.4.3)
       H     7.08107   -8.03989  -14.72751
       O     6.47876   -8.68798  -14.26380
      H1     7.06874   -9.32767  -13.78105
       H     8.09434   -5.83421  -14.46985
       O     8.67223   -6.47278  -14.01580
      H1     8.66330   -6.15790  -13.08174
       H     6.45908   -5.13270  -15.92718
       O     6.81947   -4.85556  -15.10267
      H1     6.07809   -4.36974  -14.72098
       H    10.51283   -7.25921  -16.32358
       O    10.52293   -7.55275  -17.22226
      H1    10.36277   -6.74044  -17.78835
       H    10.65682   -8.84649  -11.46716
       O     9.77956   -8.51856  -11.37366
      H1     9.85589   -7.60920  -11.19112
       H    10.74042   -5.95507   -9.72761
       O    11.34610   -5.86475   -9.00647
      H1    11.43705   -6.64063   -8.47852
       H     6.24088   -9.47319  -10.82817
       O     5.81001   -9.07961  -10.01153
      H1     4.96066   -8.65603  -10.22776
       H     1.63537   -6.51643  -12.62825
       O     1.31823   -5.58467  -12.83881
      H1     0.68698   -5.67087  -13.60381
       H     6.87055   -0.48008  -18.44625
       O     6.11380   -0.11058  -18.92965
      H1     5.51410    0.21013  -18.21821
       H     5.53154  -12.16463  -15.34291
       O     5.95797  -12.73733  -16.02962
      H1     5.96113  -13.52873  -15.47031
       H     3.49414   -5.64385  -18.63561
       O     4.07461   -6.08974  -19.27621
      H1     4.09389   -5.46965  -19.99704
       H    10.33014   -1.45568  -18.66835
       O    11.10412   -1.48515  -18.03007
      H1    11.33593   -2.45638  -18.16588
       H     2.19980   -8.40438  -12.02948
       O     2.43136   -7.58310  -11.63067
      H1     3.37562   -7.42562  -11.65148
       H     8.46184   -1.07564  -16.13058
       O     8.14455   -0.30874  -16.65012
      H1     8.02966    0.31553  -15.94654
       H    13.93381   -5.39810  -12.66076
       O    14.29062   -5.08429  -13.43177
      H1    13.50842   -4.78390  -14.02615
       H     5.43514   -5.31155  -10.86342
       O     4.64563   -5.70671  -11.28865
      H1     3.84523   -5.21855  -10.99946
       H     5.54217   -6.01908  -18.36587
       O     6.29572   -5.98306  -17.74483
      H1     6.94540   -5.40185  -18.16393
       H    11.92739   -4.07745  -14.81698
       O    12.19891   -4.78285  -15.37630
      H1    11.88590   -5.58904  -14.88790
       H     9.17880  -10.16459  -14.00498
       O     9.53386  -10.40290  -14.87229
      H1     9.00237   -9.96487  -15.47022
       H     4.70037   -1.36989   -9.94757
       O     5.23776   -0.70274  -10.36003
      H1     4.91239   -0.54046  -11.23713
       H     7.44857   -5.54500   -7.62995
       O     7.60712   -4.62297   -7.76463
      H1     7.02215   -4.22990   -7.10556
       H     5.84701    0.88665  -13.01120
       O     5.49507    0.11290  -13.50899
      H1     6.23653   -0.31291  -13.92158
       H    10.00747   -2.73452  -11.91233
       O    10.36182   -3.49328  -12.35474
      H1    10.26109   -3.28361  -13.32072
       H    13.38218   -1.10284  -14.28453
       O    12.78610   -1.41024  -14.95435
      H1    13.30125   -1.24349  -15.77039
       H    12.48060   -8.21192  -16.92083
       O    13.11083   -8.90811  -17.22461
      H1    13.34598   -8.58890  -18.12136
       H     9.63974   -1.84059  -14.41854
       O    10.29999   -2.33243  -14.86728
      H1    11.02077   -1.71380  -14.99509
       H     4.29296   -3.36950  -13.52137
       O     5.21928   -3.20242  -13.65407
      H1     5.36205   -2.67340  -14.41928
       H     6.98991   -4.67597   -9.47941
       O     6.90887   -4.66856  -10.43696
      H1     7.03555   -3.80854  -10.78400
       H    13.19654   -1.36949  -11.28976
       O    12.59030   -1.52158  -10.45811
      H1    11.65576   -1.35256  -10.66691
       H     2.17538   -3.00055  -11.71715
       O     2.58703   -3.23877  -12.58575
      H1     2.13609   -4.06831  -12.79864
       H    10.66558   -4.54502   -8.14177
       O    10.25255   -3.92774   -7.54211
      H1     9.34942   -4.17907   -7.52461
       H     4.99246   -1.58294  -16.25896
       O     5.48309   -2.40810  -16.26875
      H1     6.33241   -2.08401  -16.62251
       H     5.03612   -9.08610  -17.83019
       O     5.96635   -8.84874  -18.07576
      H1     6.04689   -7.90537  -17.87128
       H     7.65494   -8.04068   -7.65408
       O     6.86652   -7.51551   -7.71043
      H1     6.37148   -7.98531   -8.36822
       H     9.61810   -1.22807   -9.91181
       O     9.76667   -1.19465  -10.87822
      H1     9.81672   -0.26783  -11.07902
       H     5.31215  -10.21991  -14.28495
       O     4.71996  -10.99607  -14.58576
      H1     4.27861  -11.35258  -13.82282
       H     8.16036   -1.12883  -12.86553
       O     8.50495   -0.71255  -13.65171
      H1     9.17374   -0.11485  -13.33586
       H     7.82705   -9.22295  -17.72858
       O     8.72545   -9.63196  -17.63563
      H1     9.30693   -8.81693  -17.66033
       H    11.97054  -11.22495  -11.09539
       O    11.52934  -10.78366  -11.87435
      H1    12.19599  -10.12219  -12.12216
       H     9.10863   -3.10907  -16.16236
       O     8.19678   -3.01480  -16.52193
      H1     7.76414   -3.56992  -15.80932
       H    13.48179   -7.83433  -12.18898
       O    13.25739   -8.66528  -12.66542
      H1    13.89999   -8.58879  -13.38912
       H     9.63135   -4.72178  -19.28366
       O    10.31174   -5.41243  -19.19226
      H1    10.88444   -5.56201  -19.95249
       H     2.68237   -9.00167  -16.84645
       O     3.33321   -9.69244  -17.10162
      H1     3.77749   -9.97036  -16.37097
       H     2.89859   -7.16654  -15.50699
       O     2.10704   -7.40705  -15.98608
      H1     1.51884   -6.68107  -15.98025
       H    11.80973   -7.48121  -13.69104
       O    11.33185   -7.16701  -14.47646
      H1    10.44026   -6.99947  -14.09225
       H     7.52003  -12.11919  -17.60884
       O     7.93854  -12.65214  -18.30265
      H1     7.64839  -13.54457  -18.19238
       H    14.14687   -6.79010  -10.75019
       O    13.30395   -6.50153  -11.11878
      H1    12.83700   -6.17672  -10.35317
       H     6.62012   -1.66408  -11.14249
       O     6.92920   -2.13222  -11.87974
      H1     6.20599   -2.41149  -12.43956
       H    10.90785  -10.69229  -15.71658
       O    11.72596  -11.12652  -16.09783
      H1    12.17166  -10.33615  -16.49235
       H     2.56643   -3.17018  -17.34008
       O     3.14738   -3.97010  -17.22500
      H1     4.03382   -3.53627  -17.41908
       H    11.67582   -4.53527  -18.31901
       O    12.34033   -3.83966  -18.45345
      H1    12.81926   -3.80036  -17.60655
       H     8.38739   -9.88312  -11.99052
       O     7.78922  -10.43464  -12.43425
      H1     8.08491  -11.37129  -12.27895
       H     9.91282   -5.10156  -11.70876
       O     9.47720   -5.75840  -11.17823
      H1     8.63528   -5.39508  -10.83338
       H     4.42968   -6.12131  -13.26766
       O     4.18315   -6.79177  -13.94193
      H1     4.95152   -7.30537  -14.15125
       H     7.93168   -3.39413  -18.40091
       O     7.88514   -3.93360  -19.19531
      H1     7.36954   -3.37595  -19.78889

