165
frame 3 | Written by MDAnalysis XYZWriter (release 2.4.3)
       H     8.63830  -12.13509   10.89053
       O     9.25843  -12.84724   10.71073
      H1     8.65808  -13.51292   10.33229
       H     6.27561  -10.18726    8.66036
       O     5.95835  -10.44106    9.54642
      H1     6.73137  -10.26060   10.14546
       H     7.09876  -17.57721   13.36182
       O     7.64888  -16.81883   13.14776
      H1     7.06277  -16.10423   13.19191
       H     7.61964   -9.86304   12.54759
       O     7.88492  -10.06106   11.61121
      H1     8.69378   -9.52645   11.54900
       H     0.22552  -12.43202    5.72787
       O     0.32713  -11.58135    6.18603
      H1     1.26323  -11.37976    6.05593
       H     0.02875  -12.49858   11.49598
       O    -0.39268  -12.90224   10.69388
      H1    -0.27976  -12.19147   10.04018
       H     1.03317   -8.41235   13.16794
       O     1.73198   -8.50613   13.82807
      H1     2.53803   -8.10103   13.48006
       H     5.66997  -13.22374   11.94497
       O     6.17608  -14.00717   11.93899
      H1     6.57671  -14.00287   11.03071
       H     3.82392  -19.64291    8.92344
       O     3.73288  -18.89513    9.57462
      H1     3.96643  -18.12405    9.05031
       H    -1.18821  -16.53878   14.58425
       O    -1.63111  -17.32685   14.96213
      H1    -2.55496  -17.13923   15.02590
       H    -0.93175   -9.89328   11.78059
       O    -0.25773   -9.13964   11.77922
      H1     0.67586   -9.51998   11.66456
       H    -0.02726  -14.02240    4.01288
       O     0.30826  -14.01467    4.91271
      H1     1.27168  -13.97127    4.71035
       H     4.48529  -11.24873    8.83885
       O     3.73068  -11.87109    8.50421
      H1     4.17495  -12.72171    8.18580
       H    -3.15636  -10.18232   12.76997
       O    -2.60642  -10.78296   12.22767
      H1    -3.12296  -10.83268   11.47499
       H     6.90947  -17.61923    9.78140
       O     7.55207  -17.10950   10.23820
      H1     7.30091  -17.18111   11.14753
       H    -2.18071  -12.18254   13.17860
       O    -2.10533  -12.99599   13.69984
      H1    -2.75157  -13.58452   13.32523
       H    -4.76254  -15.56975   10.19807
       O    -4.09734  -14.79045   10.28612
      H1    -3.26699  -15.25662   10.14753
       H     5.15632   -9.15515    6.36731
       O     5.75401   -9.81710    6.71440
      H1     6.67437   -9.54737    6.49855
       H     3.84376  -16.50596    7.23233
       O     3.87701  -16.44266    8.24556
      H1     3.00262  -16.18464    8.61655
       H     0.87827  -11.01264   15.95117
       O     0.13139  -10.92056   15.31562
      H1    -0.42322  -11.69176   15.49007
       H     0.32686  -18.41299    7.79998
       O     0.00159  -17.51569    7.92162
      H1     0.65994  -16.92056    8.38231
       H    -1.67581   -8.25363   14.32690
       O    -1.19929   -8.37874   15.18195
      H1    -0.67682   -9.15070   14.97573
       H     4.76506   -9.74818   14.69044
       O     5.02829   -9.48980   13.80193
      H1     4.67748  -10.14945   13.15240
       H     1.36387  -10.59297    9.12776
       O     0.53900  -10.91232    8.83693
      H1     0.67457  -11.29614    7.91913
       H     0.65060  -11.58412   13.81522
       O     0.93101  -12.07645   13.05902
      H1     1.22973  -12.88513   13.52864
       H     3.69255  -16.09535    5.20883
       O     3.55258  -16.91456    5.67159
      H1     2.60778  -16.96670    5.79182
       H    -2.03355   -9.15585    7.38148
       O    -1.22826   -8.76017    7.73674
      H1    -0.68231   -9.49737    8.08711
       H     3.70877   -7.08952   10.95262
       O     3.16146   -7.34800   10.21292
      H1     2.26229   -7.17061   10.51371
       H     5.16801  -11.61505    5.40219
       O     4.59194  -11.87026    4.67193
      H1     5.13845  -11.82552    3.83295
       H     3.31677   -9.99813   16.30592
       O     4.15732  -10.44150   16.10000
      H1     4.47887  -10.75535   16.97900
       H     8.03957  -12.01751   13.74769
       O     8.18351  -12.89643   13.51992
      H1     7.53631  -13.19530   12.90289
       H     2.24790  -17.81878   11.87911
       O     2.75590  -17.11789   11.47837
      H1     3.40792  -17.64667   10.94041
       H    -1.11584  -14.48257   13.45267
       O    -0.86048  -15.25510   12.97263
      H1    -1.18958  -15.22643   12.06983
       H     2.97919  -10.49693   11.46925
       O     2.31229   -9.86455   11.08050
      H1     2.76159   -9.01008   10.94500
       H    -1.36238  -17.99359   10.66537
       O    -0.54086  -18.50514   10.59303
      H1    -0.31475  -18.23116    9.72305
       H     4.57065   -6.54577   12.90218
       O     3.94668   -7.13885   13.35276
      H1     4.51798   -7.92105   13.33505
       H     0.17615  -16.83802    6.02600
       O     0.53291  -16.75413    5.18239
      H1     0.59769  -15.79618    5.09795
       H     5.06073  -11.61790   10.88021
       O     4.59577  -11.82927   11.70131
      H1     3.80485  -12.18773   11.33027
       H     2.45538  -15.06757   13.72033
       O     1.57419  -14.75087   13.94867
      H1     0.87071  -15.20394   13.37610
       H     3.13081  -10.93712    7.20989
       O     2.77533  -10.28661    6.60567
      H1     3.25081   -9.47084    6.73865
       H     6.48525  -14.69150    4.95228
       O     6.54644  -15.02635    5.82517
      H1     6.76557  -15.96320    5.88810
       H     1.91721  -16.10625   16.51854
       O     1.73663  -15.13077   16.55301
      H1     1.51664  -14.89224   15.59188
       H     1.87368  -14.76917    9.61765
       O     1.60567  -15.60802    9.27026
      H1     1.80472  -16.15589   10.05326
       H     4.63099  -12.86154   15.09833
       O     3.92500  -13.44562   15.39090
      H1     3.39012  -12.91384   16.01010
       H     3.64145  -13.32422    4.93914
       O     3.01665  -14.07018    4.89321
      H1     2.79650  -14.16996    3.95215
       H     0.10653   -7.63675   10.50576
       O     0.62201   -6.87287   10.36858
      H1     0.31829   -6.52927    9.55604
       H     7.79692  -10.36230   15.39093
       O     7.55099  -10.22624   14.47678
      H1     6.59551  -10.08154   14.43669
       H     6.56280  -14.62132    9.01906
       O     7.40634  -14.65548    9.46311
      H1     7.51214  -15.55343    9.80688
       H     5.14137  -17.19144   15.93770
       O     5.40758  -16.46767   15.34909
      H1     4.69827  -16.15613   14.76742
       H     1.63128  -13.11749   10.81017
       O     2.56671  -13.21582   10.54557
      H1     2.60410  -12.73776    9.67710
       H     4.61251  -14.92618   12.54969
       O     4.09729  -15.58742   13.05946
      H1     3.45859  -15.94447   12.45546
       H     1.84113   -8.81752   15.50319
       O     2.14234   -8.83959   16.47178
      H1     2.71852   -8.11121   16.53674
       H    -1.66823  -15.50441    9.21094
       O    -1.56331  -15.24109   10.13014
      H1    -1.16641  -14.36885   10.30824
       H     2.02556  -13.45902   17.10283
       O     2.07797  -12.44506   17.21389
      H1     2.20656  -12.32749   18.20015
       H     5.65834  -14.69731    7.21547
       O     5.08180  -14.11352    7.74814
      H1     4.54393  -14.72743    8.26596

