165
frame 9 | Written by MDAnalysis XYZWriter (release 2.4.3)
       H    -4.43211    5.37126  -17.29652
       O    -4.86315    5.70191  -16.49813
      H1    -4.30849    5.53340  -15.69832
       H   -10.69922    8.32122  -11.85812
       O   -10.30818    8.31259  -12.77795
      H1    -9.91365    7.44767  -12.99166
       H   -11.49674   -1.63113   -9.93302
       O   -11.00447   -0.75257  -10.03872
      H1   -10.72478   -0.65600  -10.97220
       H   -17.38869   -1.59977  -14.12306
       O   -16.80389   -1.00454  -13.65978
      H1   -16.33499   -1.64377  -13.14161
       H    -8.82204    7.91122  -16.46195
       O    -8.15565    8.53574  -16.13123
      H1    -7.88923    9.06810  -16.90485
       H    -8.66014   -4.78983  -15.60830
       O    -8.77185   -5.43685  -16.34906
      H1    -9.74233   -5.33633  -16.46565
       H   -15.67685   -1.95208  -11.46611
       O   -15.16549   -2.69776  -11.82308
      H1   -15.74527   -3.24346  -12.42395
       H    -6.32599    0.54780  -14.67433
       O    -5.37511    0.57813  -14.62831
      H1    -5.16745    1.43800  -14.21739
       H   -15.21422   -1.85833  -16.16618
       O   -14.55886   -1.12940  -16.13115
      H1   -14.81682   -0.61214  -15.36892
       H   -16.24420    5.22596  -16.37228
       O   -15.71567    4.52370  -15.91841
      H1   -14.91542    4.53336  -16.51008
       H   -17.96552   -1.46996  -16.18405
       O   -18.78948   -1.40129  -15.60264
      H1   -18.97109   -2.31701  -15.26736
       H    -9.38414    6.04210  -19.40887
       O   -10.10232    5.53914  -19.00790
      H1   -10.54237    6.14839  -18.38568
       H    -8.57763   -3.49175  -18.29555
       O    -9.43436   -3.57999  -18.73813
      H1    -9.29083   -4.28647  -19.33594
       H   -16.98177    0.53073  -16.89571
       O   -17.56223    0.26987  -17.60188
      H1   -17.06713    0.19568  -18.45345
       H   -11.03964    6.99695  -16.21926
       O   -10.71144    7.47251  -16.98689
      H1   -11.33445    8.21492  -17.00927
       H   -14.48640    1.80993  -11.57670
       O   -14.41918    2.48158  -10.89133
      H1   -14.85411    3.22430  -11.26037
       H    -5.81795    6.29354  -13.27896
       O    -5.24526    5.63537  -12.84122
      H1    -4.60891    5.31904  -13.52022
       H   -13.45123    1.59985   -9.32208
       O   -12.89412    1.22917   -8.57517
      H1   -12.03110    1.04533   -9.01187
       H    -9.05976    5.15636  -13.22636
       O    -9.17012    5.93934  -13.80053
      H1    -8.86246    5.71047  -14.67124
       H   -13.18434   -1.01607  -12.91653
       O   -12.31781   -1.35263  -13.15785
      H1   -11.73224   -0.60077  -13.01211
       H   -11.16062    5.09519  -10.72318
       O   -10.64985    4.78771  -11.50802
      H1   -11.36136    4.60885  -12.12833
       H    -6.73234    0.67384  -11.28967
       O    -6.94406   -0.24902  -11.29691
      H1    -7.64971   -0.20814  -10.65196
       H   -15.64712    5.53919  -13.99810
       O   -15.13969    5.49281  -13.17813
      H1   -14.66762    6.33320  -13.08856
       H    -6.18494   -3.40797  -16.73069
       O    -6.54100   -3.02849  -17.52580
      H1    -5.86757   -3.25597  -18.13338
       H   -14.96101    0.19036  -19.26804
       O   -14.12330    0.06859  -18.78462
      H1   -14.35069   -0.34191  -17.92600
       H    -9.80845    3.38294  -11.47192
       O    -9.19569    2.61098  -11.44372
      H1    -8.52471    2.74363  -12.11219
       H   -10.59704    9.20376  -14.50104
       O   -10.26030    9.87861  -15.14024
      H1    -9.38059    9.59785  -15.48592
       H    -8.71307    2.86796   -9.62268
       O    -8.51317    3.13113   -8.72204
      H1    -8.33124    2.39582   -8.10264
       H    -6.84144   -2.57367  -13.36285
       O    -5.91935   -2.32933  -13.17472
      H1    -6.04046   -1.51030  -12.64447
       H   -11.67642   -3.12264  -13.67551
       O   -11.22653   -3.81139  -14.16401
      H1   -11.65701   -3.86244  -15.04620
       H   -15.12948   -3.72393  -17.88832
       O   -14.41320   -3.99492  -18.41216
      H1   -14.43432   -3.43998  -19.14671
       H    -9.19932    0.73234  -15.28404
       O    -8.69590    0.02155  -14.86380
      H1    -9.14691   -0.72017  -15.20548
       H    -9.58639    3.69578  -18.11703
       O    -9.02553    2.95616  -17.80892
      H1    -9.58739    2.34289  -17.25644
       H   -17.96361    1.99400  -12.31632
       O   -18.14793    1.49491  -13.15652
      H1   -17.75104    0.59271  -13.27400
       H    -5.83904   -1.31352  -17.31056
       O    -5.09764   -0.73340  -17.18772
      H1    -5.01684   -0.47726  -16.27657
       H    -4.59376    3.28648  -18.44503
       O    -4.56749    2.40476  -18.05833
      H1    -5.22561    1.84030  -18.61197
       H   -13.44431    4.45204  -13.28126
       O   -12.78536    3.79313  -13.10967
      H1   -13.12353    3.36061  -12.31978
       H   -17.02390   -3.66315  -16.98965
       O   -16.33901   -3.19992  -16.40824
      H1   -16.33120   -3.78531  -15.64461
       H    -9.67581   -0.00155  -13.33973
       O   -10.19017    0.26952  -12.57058
      H1   -10.00279    1.22756  -12.57527
       H    -6.62289    5.06429  -16.23245
       O    -7.48182    4.68015  -16.09544
      H1    -7.81412    4.08884  -16.70994
       H    -6.61358    8.37744  -12.98133
       O    -6.16827    7.98756  -13.78793
      H1    -6.93291    8.01953  -14.41915
       H   -12.45653   -4.03081  -17.54711
       O   -11.60802   -3.98917  -17.11919
      H1   -10.90906   -3.89937  -17.84072
       H   -11.39446   -1.98713  -16.81420
       O   -11.23165   -1.11166  -16.46774
      H1   -12.14723   -0.77763  -16.27418
       H   -13.14280    4.31153  -18.04368
       O   -13.09127    4.30952  -17.06260
      H1   -12.48064    4.99293  -16.89890
       H    -6.03304    0.00564  -18.84151
       O    -5.96565    0.42763  -19.67752
      H1    -6.86309    0.73663  -19.87470
       H    -9.24389   -3.76004  -13.78646
       O    -8.32517   -3.70846  -14.01858
      H1    -7.93935   -4.50190  -13.62296
       H   -16.93660    1.67506  -14.52754
       O   -16.30886    1.64131  -15.26405
      H1   -16.18434    2.58948  -15.53770
       H   -11.63747    2.23765  -16.21681
       O   -10.87897    1.67113  -16.33644
      H1   -11.16727    0.82285  -16.59805
       H    -5.26536   -3.29351  -14.56916
       O    -5.43790   -3.96569  -15.36979
      H1    -4.64054   -3.89780  -15.90323
       H   -13.31319    7.89678  -18.51068
       O   -14.12711    7.38011  -18.63160
      H1   -14.27627    6.90712  -17.83186
       H   -12.34658    6.81940  -14.57760
       O   -11.71985    6.11544  -14.79443
      H1   -10.92879    6.13917  -14.19608
       H   -14.74700    1.51540  -14.21352
       O   -13.88098    1.30627  -13.76434
      H1   -13.42503    2.18225  -13.85603
       H   -13.66606    8.39220  -13.23207
       O   -13.83724    7.91910  -14.08367
      H1   -14.29646    8.64877  -14.54855
       H    -5.87896    2.91369  -10.67638
       O    -5.83919    2.23703  -11.37563
      H1    -6.16255    2.73837  -12.16660
       H    -7.36239    3.81854  -14.14132
       O    -7.14424    3.77972  -13.22096
      H1    -6.54751    4.58557  -13.08644

