165
frame 11 | Written by MDAnalysis XYZWriter (release 2.4.3)
       H    -4.10555    3.89722    1.47813
       O    -4.03333    4.42396    0.63560
      H1    -3.37896    3.96126    0.13688
       H    -7.17386    6.37572   -2.07648
       O    -6.29590    6.22873   -1.69194
      H1    -6.52179    5.58259   -1.02787
       H    -9.07617    8.54763    7.08778
       O    -8.38700    7.83129    7.26105
      H1    -8.80814    7.26863    7.98107
       H    -8.68926   -1.83968    2.42440
       O    -7.76982   -1.56125    2.47750
      H1    -7.78817   -0.61701    2.23910
       H    -3.95010    8.05595   -0.82296
       O    -3.65257    7.98755   -1.72755
      H1    -4.23842    7.33730   -2.08753
       H   -10.05036    4.04529    5.11737
       O    -9.84089    4.64630    4.35550
      H1    -8.92451    4.47925    4.00617
       H   -11.18558    3.57874    7.19693
       O   -10.41592    3.26640    6.67492
      H1    -9.63876    3.55718    7.26124
       H    -8.77487    5.12512    1.97526
       O    -8.81368    5.84068    1.31446
      H1    -9.00404    5.32401    0.53798
       H    -4.09195    5.80633   -4.04593
       O    -4.65533    5.18752   -3.46154
      H1    -5.24139    5.67313   -2.88674
       H    -5.81025    7.13255    1.99895
       O    -5.15612    6.58639    2.47508
      H1    -4.35034    7.04397    2.63422
       H   -10.95172    9.87028    7.65590
       O   -10.21210    9.92925    7.07087
      H1   -10.49710    9.90587    6.13131
       H   -10.04318    0.57941    1.82701
       O    -9.54320    1.23931    1.32817
      H1    -9.52841    0.95377    0.39317
       H    -1.87320    3.09232    5.92880
       O    -2.54925    3.13969    5.27613
      H1    -2.27239    2.83200    4.42317
       H    -1.25473    6.32254    2.44059
       O    -1.55418    6.16274    1.53420
      H1    -2.28802    5.57157    1.46513
       H   -11.44411    6.95671    3.93335
       O   -10.74645    7.16055    3.32693
      H1   -10.11933    6.47292    3.48898
       H    -8.79228   12.06379    3.10289
       O    -8.61074   11.30433    3.72676
      H1    -8.59016   10.48115    3.24504
       H   -12.15398   -0.68209    4.23787
       O   -11.22808   -0.95607    4.00596
      H1   -10.75466   -0.81541    4.83605
       H    -4.58104    5.83569    9.23500
       O    -4.79136    6.51617    9.91863
      H1    -5.49842    7.07824    9.57049
       H    -5.38285    2.07989    2.44773
       O    -4.59317    2.68235    2.54554
      H1    -3.83310    2.08185    2.62549
       H    -5.17615    9.92978    4.79394
       O    -5.84578    9.53026    4.30166
      H1    -6.29539   10.21642    3.94467
       H    -5.11885   -1.72087    4.62812
       O    -5.32658   -2.16241    3.79054
      H1    -6.02848   -1.62379    3.41154
       H    -5.79037    9.35834    0.05891
       O    -6.33946    8.56321    0.22785
      H1    -6.50322    8.14387   -0.61569
       H   -12.51913    7.89150    6.09792
       O   -12.51017    7.21308    5.34435
      H1   -13.52400    7.04805    5.29162
       H    -3.62139    3.44632   -1.29332
       O    -2.65024    3.31488   -1.31748
      H1    -2.13270    4.05669   -1.61619
       H    -7.21257    0.39832    5.78655
       O    -6.48127    0.75738    5.28267
      H1    -6.17020    1.56748    5.67584
       H    -7.98810    3.53728    8.97718
       O    -8.04147    3.75080    8.04048
      H1    -7.15707    3.85158    7.61655
       H   -12.95959    3.42911    3.39051
       O   -13.79426    3.78496    3.08430
      H1   -14.02984    3.16430    2.36340
       H    -2.61665    5.10314    5.72670
       O    -2.40680    6.00080    5.80487
      H1    -2.88447    6.27362    6.58856
       H   -10.83961    1.36032    6.41408
       O   -10.60933    0.47366    6.47407
      H1   -11.18976    0.08830    7.15806
       H    -6.80267    7.66307    4.53067
       O    -7.45883    6.98715    4.67852
      H1    -7.86350    7.14501    5.60850
       H    -5.40392    0.19085   -0.52682
       O    -5.32970   -0.70541   -0.96439
      H1    -6.22576   -1.08982   -0.90960
       H    -5.10642    4.16095    7.22561
       O    -5.31420    4.95694    7.70473
      H1    -5.38417    5.63980    7.02691
       H    -3.18954    7.71901    4.29032
       O    -3.11990    8.15855    3.43909
      H1    -4.05099    8.42740    3.39123
       H    -7.04663    1.14061    3.32776
       O    -6.79301    1.29981    2.35187
      H1    -7.57802    1.39725    1.85958
       H   -11.67516    3.60374    0.39524
       O   -11.66485    3.34687   -0.55815
      H1   -12.55947    3.57623   -0.91726
       H    -5.48210    8.29551    8.01587
       O    -6.23338    8.35955    8.63692
      H1    -7.07292    8.10933    8.23191
       H    -2.62875    0.84526    7.40183
       O    -2.10825    0.01488    7.35862
      H1    -2.23718   -0.38861    8.24068
       H   -10.25232   10.52297    4.20849
       O   -10.78714    9.85315    4.57890
      H1   -10.55487    9.03697    4.07074
       H    -9.43096    8.68428    1.39031
       O    -8.75908    9.36935    1.47514
      H1    -7.96222    9.08205    1.01102
       H   -10.26643    6.16930    9.17500
       O    -9.36830    6.44927    9.37697
      H1    -8.86916    5.65261    9.41417
       H   -12.35593    0.06909   -0.63072
       O   -12.55579    0.67632    0.06325
      H1   -11.77404    1.22319   -0.02521
       H    -9.00392   -0.31730    7.65158
       O    -8.12018   -0.70769    7.80268
      H1    -8.25588   -1.60140    7.36633
       H   -10.70152    3.80995    2.90291
       O   -11.06237    3.35349    2.11405
      H1   -10.46788    2.62380    1.92159
       H    -1.55698    1.02917    2.25887
       O    -2.16516    1.44109    2.89111
      H1    -2.08275    1.03802    3.74156
       H    -7.34751    5.13836    0.48169
       O    -6.77737    4.49153    0.07157
      H1    -5.93187    4.67192    0.45447
       H    -5.34352    3.70744    4.66591
       O    -5.28404    3.18587    5.51192
      H1    -4.35792    2.96084    5.40535
       H    -4.38600   -1.13484    2.06582
       O    -3.80597   -1.38042    1.33964
      H1    -4.18814   -0.89017    0.54368
       H    -6.51197    4.53710    2.83994
       O    -7.12395    4.50532    3.58274
      H1    -7.29051    5.39243    3.88412
       H   -13.33831    5.48970    1.17691
       O   -12.61094    6.14124    1.13930
      H1   -12.10890    6.01531    1.98276
       H   -10.52627    6.06420   -0.95183
       O   -11.21549    6.68596   -1.14598
      H1   -11.81591    6.74091   -0.41125
       H    -4.08203    2.62407   10.02066
       O    -4.10048    2.31288    9.11115
      H1    -4.71013    1.51159    9.11365
       H    -5.76546    2.56898   -2.28828
       O    -5.52096    2.23898   -1.37277
      H1    -5.99337    2.85443   -0.84404
       H   -10.30438    4.15970   -1.10738
       O    -9.45494    4.59308   -1.15078
      H1    -9.07027    4.35439   -2.00934
       H    -3.30094    7.37361    8.13219
       O    -3.80123    7.71609    7.33885
      H1    -3.37750    8.55387    7.15605
       H    -8.98355   -0.03883   -1.37658
       O    -9.33457    0.83343   -1.32813
      H1    -8.55837    1.37536   -1.55401

