165
frame 11 | Written by MDAnalysis XYZWriter (release 2.4.3)
       H    12.51638    5.74541   16.39053
       O    12.00595    5.07487   16.85241
      H1    11.40056    4.67523   16.19296
       H    18.15650    6.93991    8.25476
       O    18.66076    6.14337    8.49524
      H1    19.32583    6.04123    7.83304
       H    16.72344    7.09038   11.94602
       O    15.76630    7.17559   11.99346
      H1    15.38079    6.30828   12.28122
       H    14.00902   19.63688   11.97806
       O    14.12049   18.97995   12.66636
      H1    13.49474   18.24365   12.45287
       H    13.40961   17.85139   17.38399
       O    13.96511   17.89428   16.58360
      H1    14.36937   17.03321   16.36949
       H    19.13849    6.56171   17.12308
       O    19.73263    5.96640   16.69079
      H1    19.09742    5.32268   16.31879
       H    17.70803   18.08653   13.20328
       O    18.27567   17.36661   13.55872
      H1    19.11762   17.51865   13.04291
       H    12.74775   14.26580   18.52685
       O    13.30873   14.37939   19.30587
      H1    13.47837   13.52083   19.64845
       H    16.44829   11.84673   12.92121
       O    16.94497   11.79459   13.76624
      H1    17.63193   12.47766   13.73610
       H    10.99100    9.66336   11.48951
       O    11.43191   10.45813   11.82833
      H1    11.87341   10.87534   11.07076
       H    19.08240    7.59371   11.00452
       O    18.56752    6.82342   11.16717
      H1    18.56764    6.37885   10.22198
       H    12.92225   12.27193    9.47989
       O    12.01577   12.13150    9.19588
      H1    11.47486   12.72398    9.74849
       H    14.57887   12.26534   11.63470
       O    15.36687   11.66475   11.43272
      H1    15.44084   11.56811   10.41288
       H    16.27252    3.86812   14.06124
       O    15.94223    4.42945   14.75537
      H1    15.48104    3.89123   15.44246
       H    14.08513    9.67215   13.73996
       O    13.15889    9.82047   14.00427
      H1    12.70774    9.80468   13.14399
       H    15.32799   15.90456    9.62145
       O    16.20900   16.32511    9.61312
      H1    16.70900   15.98676   10.38777
       H    11.16660   14.26949   16.64088
       O    11.76109   13.72466   17.20210
      H1    12.22820   13.21857   16.54354
       H    14.67163    6.74298   18.42986
       O    15.49926    6.45544   18.02314
      H1    15.66454    6.99494   17.27376
       H    17.86341   12.15629    5.44464
       O    18.23217   11.87557    6.28533
      H1    19.19094   12.00170    6.26555
       H    16.22562    8.59062    7.95755
       O    16.46379    7.76647    8.36021
      H1    15.63624    7.32554    8.58327
       H     9.14463   11.92860   15.46683
       O     8.48080   12.55553   15.74622
      H1     7.64056   12.00399   15.80575
       H    10.83584   11.03769   19.59199
       O    11.12742   10.07126   19.55769
      H1    12.08702   10.21491   19.46480
       H    18.34348    6.94360   18.86704
       O    17.82699    6.12139   19.18861
      H1    16.97725    6.18406   18.71645
       H    15.53727   18.27764   17.35005
       O    16.17677   18.35209   18.11273
      H1    15.82436   17.62440   18.70572
       H    17.05345   14.83441    8.10789
       O    16.68961   14.05677    7.68172
      H1    17.41801   13.43890    7.80106
       H    13.56122   13.60375    5.77226
       O    14.10871   12.85019    6.07247
      H1    14.11062   12.90871    7.07945
       H    19.73838   14.08589   13.40401
       O    19.01680   13.78789   13.97624
      H1    19.44985   13.96136   14.79927
       H    14.02884   12.56415   15.45451
       O    13.16515   12.20036   15.14651
      H1    13.34259   11.31707   14.85895
       H    10.86061    7.51448   10.93629
       O    10.68587    8.35045   10.44208
      H1     9.75024    8.54965   10.56885
       H    15.57338   12.91102    8.38835
       O    15.12909   12.09122    8.61282
      H1    15.42889   11.49354    7.95321
       H    18.25583   17.15901   15.47571
       O    17.76296   16.62141   16.11671
      H1    17.82789   16.97772   16.98289
       H     9.25834   12.05679   13.36984
       O     9.39583   12.15190   12.44321
      H1    10.13958   11.46111   12.41885
       H    15.29997    9.29874    6.34428
       O    15.52992   10.15543    6.73027
      H1    16.33660   10.45028    6.26289
       H    15.27486   15.70139   12.87956
       O    14.31472   15.70059   13.14174
      H1    13.95392   14.84764   12.76314
       H    17.08099   13.81785   18.61481
       O    16.60922   13.00021   18.63870
      H1    16.08875   13.04068   17.81552
       H    14.26418    5.26205   13.61864
       O    14.02842    5.12773   12.71660
      H1    13.83334    4.17096   12.67386
       H    10.72569   14.56783   10.76420
       O    11.18942   13.80999   11.09539
      H1    10.43706   13.27688   11.39725
       H    18.46785   10.93217   11.56705
       O    18.17622   11.65194   10.90947
      H1    17.26336   11.72418   11.20836
       H    17.56944   17.51064    8.93775
       O    18.42662   17.78117    8.62741
      H1    18.35308   18.64589    8.32827
       H    13.36788   16.51907   12.01360
       O    12.57285   16.96319   11.59457
      H1    12.96950   17.29876   10.75461
       H    14.97865   15.81374   14.63678
       O    15.33490   15.90438   15.55904
      H1    16.24574   16.25447   15.58058
       H    17.77781    7.99219   16.87463
       O    18.22417    8.32906   17.64906
      H1    17.67982    9.06045   17.95994
       H    11.67003    7.44799   15.02569
       O    12.40938    7.30209   14.40867
      H1    12.65938    8.23243   14.17813
       H    16.66480    6.35753   15.31114
       O    16.85943    7.27180   15.62008
      H1    16.56492    7.86740   14.92578
       H    15.98802   12.82666   15.32657
       O    15.58294   13.24675   16.08745
      H1    15.65844   14.20651   15.96048
       H    12.64370   13.41519   12.03865
       O    13.50727   13.33121   12.49092
      H1    13.37002   12.80945   13.28023
       H    13.54627    6.61167    9.53738
       O    14.28717    6.00463    9.63065
      H1    14.84724    6.36665   10.35364
       H     9.85364   15.22827   14.63879
       O    10.69487   15.06473   15.15511
      H1    11.20752   15.84261   15.05009
       H    17.45526   15.99045   13.01865
       O    17.00541   15.29045   12.53916
      H1    17.46920   14.48466   12.81234
       H    15.74058    8.43317   12.99150
       O    15.71054    9.05729   13.76358
      H1    16.25321    9.79635   13.45272
       H    16.69474   11.11249   18.45025
       O    16.79631   10.24824   18.83389
      H1    15.91692    9.83340   18.78653
       H    11.24971   11.42604   14.95152
       O    10.45006   10.93839   14.82829
      H1    10.67710   10.03406   15.11727
       H    14.05523   10.30107   20.11071
       O    13.79816    9.75295   19.33846
      H1    13.75407    8.80871   19.63757
       H    18.70039    2.99797   15.83776
       O    18.79868    3.72543   15.20586
      H1    17.92933    4.08770   14.99654
       H    11.28571   18.33559   15.24351
       O    11.85105   17.63137   14.92505
      H1    12.61689   17.64717   15.56541

