165
frame 2 | Written by MDAnalysis XYZWriter (release 2.4.3)
       H   -10.62083  -16.50935   -3.56359
       O   -10.09722  -16.02207   -4.27755
      H1    -9.25291  -16.51690   -4.44192
       H   -16.95272   -5.96342   -2.45806
       O   -17.79934   -6.28747   -2.08374
      H1   -18.46354   -6.04307   -2.66072
       H   -16.71445  -11.49030    0.26361
       O   -17.14509  -11.27876   -0.58209
      H1   -18.02353  -11.70815   -0.39161
       H   -16.29478   -6.73907    1.51913
       O   -15.68441   -7.38418    1.14173
      H1   -16.03641   -7.59467    0.29909
       H   -17.44545   -5.06781   -6.94641
       O   -17.94736   -5.44245   -6.21744
      H1   -18.20209   -4.69900   -5.67653
       H   -12.15873   -6.21373  -10.49207
       O   -12.68516   -5.46357  -10.17176
      H1   -12.05503   -4.73963   -9.95982
       H   -13.74804   -9.36267  -10.78597
       O   -14.28443   -9.57534  -11.56565
      H1   -15.18721   -9.30413  -11.35994
       H   -14.85889   -5.79100   -3.22134
       O   -15.60936   -5.66100   -3.81710
      H1   -15.62156   -6.43709   -4.37800
       H    -9.84530   -6.54057   -5.74178
       O    -9.27215   -5.98676   -5.15429
      H1    -9.84054   -5.66143   -4.38520
       H   -10.05714  -11.38382   -8.71776
       O    -9.33138  -11.43326   -8.00071
      H1    -9.38830  -12.24775   -7.54236
       H   -15.94093   -4.06496   -4.13423
       O   -16.29809   -3.16159   -3.91268
      H1   -15.54356   -2.55728   -4.20959
       H    -8.65301  -14.26951   -5.78854
       O    -9.25252  -13.51729   -5.98313
      H1    -9.53890  -13.30425   -5.13637
       H   -15.42770   -5.54532   -8.18444
       O   -16.20600   -5.04243   -8.35533
      H1   -16.01745   -4.13864   -8.18553
       H   -11.24827  -13.18087    0.19175
       O   -10.48994  -12.71563   -0.15690
      H1   -10.77459  -11.81381   -0.47541
       H   -17.02016   -8.20707  -11.32245
       O   -16.95303   -9.12558  -11.01014
      H1   -17.01326   -9.00116  -10.04263
       H   -12.59642   -9.39048   -8.71791
       O   -12.92739   -8.65389   -9.29076
      H1   -13.38790   -8.00873   -8.70895
       H   -11.36038   -7.29081   -7.32252
       O   -10.39464   -7.25830   -7.28634
      H1   -10.12330   -8.20545   -7.27237
       H    -8.42218   -6.18510   -0.99852
       O    -8.63802   -5.36144   -0.51768
      H1    -7.90776   -5.14728    0.10865
       H   -18.86588   -7.73123   -8.15862
       O   -18.18091   -8.31900   -7.85688
      H1   -18.17913   -8.25201   -6.88507
       H   -11.57799   -8.18999  -10.63333
       O   -11.03531   -7.56357  -11.13311
      H1   -11.37223   -7.75397  -12.06794
       H   -16.06750   -8.49502   -5.04403
       O   -15.37711   -7.97488   -5.52327
      H1   -15.44535   -8.32019   -6.40041
       H   -13.18734   -6.08653   -8.57808
       O   -13.66783   -6.31903   -7.77950
      H1   -13.28450   -5.71568   -7.07786
       H   -13.03333   -9.54572   -5.17542
       O   -13.02966   -8.88729   -4.48638
      H1   -13.91207   -8.53249   -4.68310
       H    -9.62326  -14.67962   -3.14585
       O    -9.33887  -13.87687   -2.71408
      H1    -9.75053  -13.87527   -1.85922
       H   -11.66671   -7.97322   -3.38045
       O   -10.79264   -7.93007   -2.93532
      H1   -10.10422   -8.11892   -3.58333
       H   -17.71447  -10.96096   -5.34836
       O   -17.27147  -10.82719   -4.48280
      H1   -17.68932  -10.05427   -4.18399
       H   -12.04538   -4.61735   -4.56324
       O   -12.01961   -4.62329   -3.59127
      H1   -11.62986   -3.82053   -3.31469
       H    -7.07139   -6.96209   -4.28884
       O    -6.39068   -7.47462   -3.89895
      H1    -6.23637   -8.17557   -4.52383
       H    -8.66405   -8.97876   -1.10235
       O    -8.01418   -8.25682   -0.92571
      H1    -7.16117   -8.48156   -1.23182
       H    -8.32960  -10.33082   -5.57494
       O    -7.46989  -10.28083   -5.14731
      H1    -7.51119  -10.62655   -4.28326
       H   -18.12765   -9.71869   -0.48493
       O   -18.84900   -9.08555   -0.61327
      H1   -18.52218   -8.58959   -1.41516
       H   -11.23054  -10.82060  -10.94895
       O   -11.50110  -11.10718  -10.02901
      H1   -12.21971  -11.73982  -10.03754
       H   -15.02705  -12.52420   -1.47665
       O   -14.13430  -12.25250   -1.39517
      H1   -13.61854  -13.09002   -1.51894
       H    -9.20571  -10.60571   -2.26955
       O    -9.96688  -10.29552   -1.77385
      H1   -10.31487   -9.48100   -2.22283
       H    -7.78838  -12.64507   -2.59927
       O    -7.56804  -11.73190   -2.52158
      H1    -6.66221  -11.79935   -2.19130
       H   -16.23573  -12.30184   -4.41747
       O   -15.66557  -13.07166   -4.54955
      H1   -16.17336  -13.86299   -4.74870
       H    -9.23705   -5.01797   -6.62150
       O    -9.14755   -4.15303   -7.10313
      H1    -9.04913   -3.47108   -6.39549
       H   -12.76980   -6.39706   -1.30402
       O   -13.39848   -6.02430   -1.88575
      H1   -12.90996   -5.30092   -2.37790
       H   -12.82053  -11.59969   -3.10472
       O   -12.04668  -11.96423   -3.56674
      H1   -11.25972  -11.70493   -3.02718
       H   -19.18367   -7.84409   -4.91121
       O   -18.25174   -7.88175   -5.04495
      H1   -18.07086   -6.97267   -5.41413
       H   -12.51339  -14.95570   -6.00202
       O   -12.17218  -15.83502   -6.03445
      H1   -11.42187  -15.87647   -5.49396
       H   -13.23441  -11.50856   -6.53304
       O   -13.43212  -10.62796   -6.79883
      H1   -14.14773  -10.57316   -7.45694
       H   -15.41816  -11.30814   -9.09138
       O   -15.77639  -10.53675   -8.56250
      H1   -16.53285  -10.80170   -8.07312
       H    -6.25752  -10.54599   -6.82295
       O    -5.64050  -10.48813   -7.54466
      H1    -6.07335  -10.95304   -8.26247
       H   -14.47548  -13.88679   -9.32477
       O   -15.26206  -13.35180   -9.45203
      H1   -15.53456  -13.47651  -10.32967
       H   -14.90775  -15.29652   -2.78391
       O   -15.28249  -16.11248   -2.55152
      H1   -14.96747  -16.76913   -3.17097
       H   -10.85643  -10.22574   -5.15588
       O   -10.16716  -10.03927   -5.77535
      H1   -10.13081  -10.72300   -6.45493
       H   -12.74293   -9.56888   -1.28688
       O   -12.76414   -9.88416   -0.39307
      H1   -13.25738  -10.73454   -0.51317
       H   -12.24829  -14.50674   -9.47545
       O   -12.92144  -14.89418   -8.87870
      H1   -12.85637  -14.49115   -8.00551
       H   -19.00891  -11.52020   -7.43512
       O   -18.20226  -10.97918   -7.22681
      H1   -18.28971  -10.12086   -7.69031
       H   -11.88153  -13.79872   -2.87222
       O   -12.39971  -14.39154   -2.26851
      H1   -12.81741  -15.16023   -2.76094
       H   -14.06874  -13.20113   -5.23187
       O   -13.19336  -13.31275   -5.61515
      H1   -12.62910  -12.75636   -4.95272
       H   -12.49965   -3.80162   -6.75669
       O   -12.04106   -4.50957   -6.25951
      H1   -11.12173   -4.54181   -6.67607
       H   -13.92892   -7.54457    1.21296
       O   -12.98520   -7.70265    1.20425
      H1   -12.95291   -8.56087    0.74858
       H   -13.87769   -4.89633   -0.63612
       O   -13.96821   -3.97254   -0.26723
      H1   -14.77616   -3.52806   -0.56401

