168
frame 0 | Written by MDAnalysis XYZWriter (release 2.4.3)
       H     4.54460  -18.91574  -13.28014
       O     5.05314  -19.01167  -14.05835
      H1     5.28464  -19.93794  -14.14770
       H    -1.44407  -15.59197   -9.50814
       O    -2.12712  -15.36748   -8.83713
      H1    -2.56701  -14.64273   -9.31407
       H     6.49076  -16.40067  -11.07166
       O     5.57272  -16.58302  -10.99427
      H1     5.12184  -16.21801  -11.76932
       H     1.34685  -13.01208   -6.54004
       O     0.71632  -13.25997   -7.26869
      H1     0.44636  -14.14107   -7.13187
       H    -6.50927  -15.78272  -14.67490
       O    -6.79365  -16.66239  -14.38597
      H1    -6.08154  -17.27288  -14.59698
       H    -4.60491  -11.55554  -15.55230
       O    -4.14332  -12.30393  -15.23847
      H1    -3.72839  -12.66640  -16.05155
       H    -1.48477  -18.58577   -7.23125
       O    -0.93312  -19.33831   -7.61807
      H1    -1.49718  -20.06022   -7.38934
       H     1.09044  -18.22381  -15.60880
       O     1.43088  -18.23226  -14.69172
      H1     1.61550  -19.12101  -14.44098
       H     9.23847  -16.04309  -17.63949
       O    10.00537  -15.47277  -17.53874
      H1     9.68565  -14.62146  -17.89993
       H     5.32863  -16.24416  -14.89050
       O     6.13766  -15.73747  -14.66907
      H1     6.68108  -15.69081  -15.45547
       H     6.12169  -13.00086  -11.08241
       O     6.16217  -13.21154  -12.01816
      H1     7.07518  -13.39686  -12.24620
       H    -4.02780  -18.67926  -14.83086
       O    -3.86311  -17.81150  -15.25232
      H1    -3.96316  -17.17407  -14.58576
       H     3.02845  -17.27383  -15.38445
       O     3.93027  -17.20860  -15.62093
      H1     4.28475  -17.95619  -15.14248
       H    -6.72061  -17.34824  -11.15217
       O    -6.01362  -17.47616  -11.85194
      H1    -6.32221  -17.04566  -12.71024
       H    -1.39146  -11.12561  -17.95573
       O    -0.77676  -11.82956  -17.69414
      H1    -0.92996  -12.42997  -18.48413
       H     5.74494  -12.27856  -16.80874
       O     6.04649  -13.15230  -16.90960
      H1     6.07993  -13.58609  -16.05432
       H    -4.64827  -14.66096  -12.35658
       O    -5.04551  -13.91138  -11.89514
      H1    -4.77432  -13.28495  -12.57837
       H    -5.07211  -13.80101  -15.78834
       O    -5.76109  -14.44318  -15.94154
      H1    -6.01722  -14.32579  -16.85321
       H     8.26187  -17.03461   -9.03375
       O     8.86937  -16.35846   -9.33942
      H1     8.63078  -15.95752  -10.19720
       H    -2.91691  -15.84471  -12.83700
       O    -3.85014  -16.04378  -12.98839
      H1    -4.14528  -16.61592  -12.22577
       H     4.71188  -13.71760   -8.69506
       O     5.06034  -13.10630   -9.41982
      H1     5.31789  -12.23500   -9.06168
       H    -0.12548  -15.48809  -12.87237
       O     0.60921  -15.71170  -13.44587
      H1     0.32912  -16.28896  -14.13793
       H     1.46227  -14.78492  -15.85020
       O     1.46329  -15.33338  -16.66430
      H1     2.07906  -14.86561  -17.22819
       H     2.72398  -18.12531  -11.09366
       O     2.31583  -17.33280  -10.78801
      H1     2.76556  -16.59623  -11.23446
       H     6.55876  -14.18608   -8.99247
       O     7.26456  -14.50269   -8.38229
      H1     7.74572  -15.15776   -8.86177
       H    -2.12335  -13.08028  -17.42650
       O    -3.04910  -13.34994  -17.38309
      H1    -3.21523  -14.22376  -17.79474
       H     1.27690  -14.30257  -14.10801
       O     1.83162  -13.61539  -14.50422
      H1     1.29130  -12.83156  -14.63471
       H     6.88861  -18.77618  -14.58380
       O     7.67742  -18.76996  -15.21281
      H1     7.39759  -18.14202  -15.94231
       H     6.81541  -18.97583   -9.20417
       O     7.02686  -18.19117   -8.62308
      H1     6.46468  -18.22623   -7.83799
       H    -1.20559  -14.24255  -11.19673
       O    -1.31421  -14.74271  -12.03266
      H1    -1.66826  -14.06156  -12.56900
       H    -1.63364  -10.85130  -10.33344
       O    -0.71898  -10.80085   -9.94748
      H1    -0.34970  -11.69807   -9.82942
       H     3.61295  -14.96162  -13.55350
       O     3.47437  -15.48017  -12.73744
      H1     2.55719  -15.77868  -12.82578
       H     3.43274  -13.60103  -18.87475
       O     3.71222  -14.37702  -18.32461
      H1     4.27847  -13.90421  -17.66329
       H     2.96933  -11.88632  -11.86707
       O     2.19310  -11.99126  -11.27530
      H1     2.55261  -11.89449  -10.39691
       H     5.59530  -10.07687  -14.93928
       O     5.30545  -10.75271  -15.56119
      H1     4.90144  -11.33991  -14.83008
       H    -1.28145  -17.74302  -17.24100
       O    -2.22032  -17.97326  -17.48246
      H1    -2.86889  -17.91150  -16.71981
       H     0.61053  -17.74224  -10.09779
       O    -0.24885  -17.56026   -9.69357
      H1    -0.48250  -18.30967   -9.09792
       H    -1.72765  -19.17483  -12.54867
       O    -2.15150  -18.72909  -11.84453
      H1    -1.50152  -18.42165  -11.25502
       H     9.34298  -18.35245  -19.78869
       O     8.59013  -18.33645  -19.19825
      H1     7.84074  -18.44123  -19.83849
       H     0.73040  -19.04166   -6.89481
       O     1.61507  -18.99500   -6.54186
      H1     2.04324  -18.14838   -6.76662
       H    -3.49683  -15.89160  -19.61747
       O    -3.97275  -15.82483  -18.75609
      H1    -3.70938  -16.53752  -18.16989
       H     5.47268  -19.75573  -17.66415
       O     4.73494  -19.07981  -17.88376
      H1     4.84008  -18.45637  -17.12802
       H     0.48611  -18.00996  -18.17933
       O     0.37778  -17.76489  -17.24962
      H1     0.58777  -16.78923  -17.30046
       H     1.50250  -16.21315   -7.52819
       O     0.56457  -16.07141   -7.49822
      H1     0.28960  -16.22160   -8.43680
       H     0.88747  -13.11560  -10.67565
       O     0.23319  -13.25776  -10.00254
      H1     0.69026  -13.34756   -9.11625
       H     4.97588  -15.90403   -9.18897
       O     4.69240  -15.58708   -8.31362
      H1     5.51860  -15.22259   -8.05386
       H     3.67810  -16.02658   -7.16212
       O     2.91422  -16.37842   -6.63491
      H1     2.60816  -15.75822   -5.97201
       H     8.79715  -18.60097  -13.09534
       O     8.29402  -18.39941  -12.28232
      H1     7.65743  -19.11907  -12.14710
       H    -2.87827  -12.18479  -13.98599
       O    -2.13615  -12.25607  -13.32105
      H1    -2.51407  -11.62239  -12.64111
       H    -3.51263  -16.64461   -8.49929
       O    -4.21321  -17.17653   -7.99313
      H1    -4.96007  -16.59018   -7.70052
       H     7.54947  -16.70146  -18.35096
       O     6.93706  -16.22346  -17.78855
      H1     6.30798  -15.89877  -18.44233
       H     4.89747  -17.43141   -6.35477
       O     5.55615  -18.14344   -6.26168
      H1     6.31431  -17.76865   -5.76624
       H    -4.12761  -19.00243   -8.36904
       O    -4.43957  -19.92274   -8.30438
      H1    -4.53818  -19.96856   -7.33406
       H    -0.66544  -11.67340  -14.52701
       O     0.05173  -11.60420  -15.17719
      H1    -0.17588  -12.08506  -16.00199
       H     3.17647  -12.79635  -13.86593
       O     3.92291  -12.23096  -13.53976
      H1     4.59143  -12.79409  -13.12007
       H     7.70913  -15.28788  -12.73652
       O     8.22580  -15.50930  -11.98510
      H1     8.55529  -16.39669  -12.18059

