168
frame 8 | Written by MDAnalysis XYZWriter (release 2.4.3)
       H    18.74565    3.86299   -6.92465
       O    19.26563    3.98613   -6.11605
      H1    20.09015    3.56842   -6.46372
       H    14.84892    6.91680   -6.67467
       O    13.89441    7.06375   -6.52053
      H1    13.81909    7.94472   -6.09685
       H    12.43083   -2.47656   -0.44819
       O    12.98970   -2.09589   -1.13101
      H1    13.48990   -2.84403   -1.55686
       H    14.26925    4.15987    1.94365
       O    14.67415    4.87747    1.39982
      H1    15.28673    4.38038    0.89215
       H    11.25910    5.99603   -7.05809
       O    10.77423    5.61734   -6.26656
      H1    11.36593    5.45686   -5.53445
       H    13.30004    8.96872    2.43758
       O    13.03078    8.17230    2.02588
      H1    13.84523    8.02523    1.46655
       H    13.68763    8.02463   -8.02114
       O    13.87520    8.34334   -8.91674
      H1    13.25318    9.00855   -9.19429
       H    13.50944    0.92446   -6.40974
       O    14.01374    0.77756   -7.14823
      H1    13.48619    0.20078   -7.67950
       H    17.70603   11.28351   -1.56977
       O    17.11661   10.69028   -2.10985
      H1    16.25238   10.66981   -1.63750
       H    14.85508    3.20669   -5.80794
       O    14.57766    3.07623   -4.82930
      H1    13.89615    3.72601   -4.60170
       H    10.51555    8.00959   -2.83370
       O    11.16612    8.52291   -2.32405
      H1    10.67446    8.74214   -1.51293
       H    10.21934    4.18200   -2.13080
       O    10.53966    5.06403   -2.26210
      H1    11.34519    5.15089   -1.70099
       H    13.19704    4.75487    5.01166
       O    13.45017    3.81138    5.20540
      H1    14.27675    3.88404    5.74447
       H    16.96702    6.62066   -5.72716
       O    16.74959    6.33915   -4.80995
      H1    16.94871    5.38530   -4.78409
       H    17.18870    2.74613    1.27500
       O    16.97993    3.27000    0.48158
      H1    17.77563    3.20262   -0.08091
       H    15.28012   -1.23982   -3.78883
       O    15.85865   -0.92646   -3.07475
      H1    15.28063   -0.28272   -2.54761
       H    14.57747    0.49475   -0.58531
       O    14.42690    0.78891   -1.48553
      H1    14.56487    1.73821   -1.60966
       H    14.45666    3.09135    3.82279
       O    14.90308    2.57014    3.09573
      H1    14.51603    1.70928    3.06775
       H    18.81433   10.24337    0.24837
       O    19.12633    9.40925    0.57422
      H1    18.52015    8.70846    0.41832
       H    12.07237   11.58403   -2.38876
       O    12.62234   10.82977   -2.61946
      H1    11.98077   10.13663   -2.74388
       H    17.63196   -2.90513    0.07556
       O    16.71572   -3.11084    0.05772
      H1    16.46662   -3.18196   -0.89214
       H    10.62767    1.77362   -1.61076
       O     9.87996    2.34742   -1.28989
      H1     9.00118    1.99535   -1.50828
       H    12.80686    0.66884   -1.75005
       O    11.88616    0.53406   -2.05390
      H1    11.87502   -0.43759   -2.02325
       H    11.67002    4.08707    1.07991
       O    11.68392    3.90274    2.02661
      H1    11.03159    4.44225    2.46313
       H    20.12892    2.55233   -8.26828
       O    19.64511    3.14768   -8.86648
      H1    18.99217    2.52378   -9.17131
       H    13.35186   -1.57046    3.91443
       O    13.51083   -0.77354    3.40408
      H1    13.01285   -0.03257    3.73479
       H    13.27271    7.05625    3.45693
       O    13.11247    6.51855    4.25656
      H1    12.98083    7.16067    4.96974
       H    15.42787    3.07324   -0.70927
       O    14.93065    3.36824   -1.48286
      H1    15.57250    3.47260   -2.22174
       H    13.08299    1.97662   -4.64945
       O    12.43545    1.32361   -4.85001
      H1    12.13540    0.91657   -4.02196
       H    18.71875    5.57899   -1.26820
       O    19.07499    6.48781   -1.14908
      H1    18.80543    7.07513   -1.88612
       H    18.27279   -2.94323   -2.52657
       O    17.37467   -3.29154   -2.62195
      H1    16.86003   -2.47451   -2.62710
       H    11.76884    4.85613   -3.36457
       O    12.39124    4.69960   -4.11807
      H1    13.13162    5.32808   -3.92045
       H    16.71214    3.39340   -4.49095
       O    17.34654    3.89721   -3.97610
      H1    18.16261    3.71943   -4.46294
       H    11.16250   -2.33972   -4.14978
       O    11.95878   -2.81497   -3.76083
      H1    11.78493   -3.25944   -2.96072
       H    15.34197   -1.32346    0.95761
       O    15.04898   -0.40752    1.26069
      H1    14.47533   -0.58003    2.06238
       H    16.79321    6.45109   -8.32678
       O    16.77723    6.96046   -7.53257
      H1    17.54993    7.52880   -7.52268
       H    13.91286   10.18170   -6.55869
       O    13.97925    9.82471   -5.70546
      H1    13.08788    9.79326   -5.37411
       H    11.07434    2.32599   -5.62572
       O    10.13486    2.69222   -5.75889
      H1    10.36485    3.63375   -5.98581
       H    16.04815    5.18748    3.13091
       O    16.75159    5.44015    3.68654
      H1    17.24809    4.65461    4.02308
       H    17.56397    0.36677   -5.61361
       O    17.68435    0.43361   -4.69758
      H1    16.85137    0.06870   -4.27046
       H    17.76072    9.07153   -3.02617
       O    18.31556    8.36948   -3.41390
      H1    17.76929    7.80281   -3.89101
       H    13.67716   -2.27226   -4.73074
       O    14.56960   -2.51975   -5.12443
      H1    14.58421   -3.48399   -5.19753
       H     9.98987    7.44562    2.72257
       O    10.41520    6.74546    2.16356
      H1    11.34839    7.03280    2.04274
       H    15.00991    3.02798   -8.11707
       O    15.95087    2.81367   -7.92295
      H1    16.11788    1.86980   -8.09972
       H    16.56923    4.11098   -9.19996
       O    16.76737    4.97670   -9.65121
      H1    16.29861    4.82830  -10.52562
       H    16.72637   -0.63368   -7.79751
       O    16.64537    0.08071   -7.21734
      H1    15.74184   -0.03851   -6.98119
       H    15.69777    7.34435    0.03665
       O    14.77543    7.29706   -0.27463
      H1    14.66949    6.77032   -1.09949
       H    13.52440   10.07797   -0.94263
       O    14.39490    9.98820   -0.51806
      H1    14.61962    9.04900   -0.61909
       H    15.21274    6.31068   -3.56056
       O    14.39815    6.47383   -3.05169
      H1    14.20350    7.34639   -3.32052
       H    11.09896    0.80396    3.60564
       O    11.81495    1.25131    4.12764
      H1    11.98958    2.09275    3.70854
       H    16.68062   -2.33073   -6.01484
       O    17.42728   -2.80772   -6.40061
      H1    17.50106   -3.62817   -5.90850
       H    10.77017    7.81575   -5.08460
       O    11.04527    8.68935   -5.49549
      H1    10.50026    9.29770   -4.89649
       H    13.50611    4.39592   -1.10317
       O    12.86229    5.00054   -0.81946
      H1    13.16884    5.39073    0.02375
       H    16.96327    6.86353    1.86867
       O    17.36827    7.37285    1.13114
      H1    17.89648    6.70214    0.61288
       H     9.68722    6.13789   -3.42671
       O     9.40272    6.92973   -3.88367
      H1     8.59653    7.19922   -3.45027
       H     9.98294    0.73542   -0.04739
       O     9.49722    0.15728    0.54145
      H1    10.19407   -0.20941    1.09808

