168
frame 11 | Written by MDAnalysis XYZWriter (release 2.4.3)
       H    17.24714   16.34868    3.17596
       O    17.21331   16.35840    2.22092
      H1    16.53768   15.69298    2.06485
       H     8.90259   16.19275    3.17157
       O     8.64604   16.67722    4.00182
      H1     7.67608   16.62328    4.04831
       H    15.38342   12.55331    5.05494
       O    16.14826   12.34396    4.43868
      H1    15.88451   11.54325    4.02779
       H    16.70271   13.69267   -4.94720
       O    16.13969   14.39185   -4.54975
      H1    15.55945   13.97503   -3.89947
       H    17.46378   16.71667   -7.04575
       O    18.18272   17.16130   -6.53880
      H1    18.45488   16.58531   -5.81522
       H    14.13884   14.77025    3.52743
       O    13.40659   15.25205    4.01978
      H1    13.98852   15.99509    4.44328
       H    14.90401   11.42887   -2.98198
       O    14.65077   12.31663   -3.23268
      H1    13.72813   12.21652   -3.60624
       H    18.34552   17.19563   -3.91847
       O    18.81340   16.35865   -4.05098
      H1    18.17300   15.69723   -3.83060
       H    13.77079    9.73730    1.72993
       O    13.03141    9.30762    1.20998
      H1    13.50167    8.96150    0.39320
       H    20.11501   14.93919    3.58381
       O    19.92047   15.18239    2.67284
      H1    18.94916   15.14806    2.71971
       H    18.65122   10.00028   -3.33850
       O    18.16706   10.26919   -2.56185
      H1    18.71217   10.89622   -2.07359
       H    16.07073   13.58924    3.26283
       O    15.60326   14.11782    2.55354
      H1    15.53983   13.58568    1.76443
       H    14.33491   17.74344   -0.82246
       O    15.18310   18.03192   -1.28183
      H1    15.12730   17.70467   -2.24012
       H    13.91433   17.27889    8.65718
       O    13.75671   17.95537    9.34675
      H1    14.56616   18.48709    9.48870
       H    12.66971   18.80819    3.69582
       O    13.20357   19.04970    2.92492
      H1    13.19810   20.02625    2.98273
       H    17.32188   15.73021   -0.41320
       O    17.93293   16.18859   -0.98928
      H1    17.80804   17.10970   -0.67363
       H    11.10256   18.42740   -3.91619
       O    11.10530   18.21042   -4.88455
      H1    11.76483   18.88838   -5.20929
       H    17.30938    8.15078    4.86496
       O    16.74299    8.52489    4.19486
      H1    15.99236    7.88489    4.18805
       H    15.32799   15.90456    9.62145
       O    16.20900   16.32511    9.61312
      H1    16.70900   15.98676   10.38777
       H    12.04831   12.08609   -3.27445
       O    12.06315   11.71578   -4.17725
      H1    12.07529   10.73308   -4.06140
       H    17.86341   12.15629    5.44464
       O    18.23217   11.87557    6.28533
      H1    19.19094   12.00170    6.26555
       H     9.93652   15.21748   -0.12249
       O    10.24078   14.82414   -0.96291
      H1     9.88153   13.94803   -0.83175
       H    10.98624   10.46457    4.84653
       O    10.69250   10.00024    4.00925
      H1     9.74191    9.84227    4.17145
       H    12.99326   15.97865    7.25896
       O    13.96260   15.95201    7.54718
      H1    14.42956   16.46744    6.88164
       H    12.67943   15.84305    2.38060
       O    12.27865   15.54129    1.54230
      H1    12.22631   16.38557    1.05823
       H     9.06871   13.38614    5.04122
       O     9.05224   12.61069    4.43348
      H1     9.96591   12.46685    4.21256
       H    12.82494   14.17080    0.49558
       O    13.17921   13.25426    0.25432
      H1    13.20404   13.15055   -0.71112
       H    16.65588   18.07687    2.16925
       O    16.25205   18.96762    2.14608
      H1    15.33082   18.75788    2.50390
       H    17.05345   14.83441    8.10789
       O    16.68961   14.05677    7.68172
      H1    17.41801   13.43890    7.80106
       H    13.56122   13.60375    5.77226
       O    14.10871   12.85019    6.07247
      H1    14.11062   12.90871    7.07945
       H     9.16486   15.05189    6.65484
       O     9.59506   14.98512    5.80932
      H1     9.04709   15.61610    5.26106
       H    11.35919   19.93354    8.38576
       O    12.30389   19.98348    8.18689
      H1    12.72918   19.15071    8.37155
       H    15.63984   19.66639    5.83950
       O    16.47080   19.18746    5.55549
      H1    17.14506   19.88847    5.80368
       H    10.83614   16.66987   -2.23023
       O    10.73877   17.62944   -2.28254
      H1     9.77499   17.60972   -2.34174
       H    11.88685   14.49810   -3.51391
       O    12.31722   14.16339   -2.65553
      H1    11.59724   14.32711   -2.04746
       H    15.57338   12.91102    8.38835
       O    15.12909   12.09122    8.61282
      H1    15.42889   11.49354    7.95321
       H    11.64864   18.30466   -0.00052
       O    12.56715   18.10887    0.32324
      H1    12.51963   18.27552    1.26680
       H    15.29997    9.29874    6.34428
       O    15.52992   10.15543    6.73027
      H1    16.33660   10.45028    6.26289
       H    11.46070   17.72191    5.44277
       O    11.33394   18.27723    4.60692
      H1    10.53210   17.89322    4.27518
       H    14.97982   15.14184   -5.71932
       O    14.30272   15.34429   -6.39835
      H1    14.77865   15.98846   -6.90869
       H    11.66936   11.08255    7.17791
       O    12.12620   10.87088    6.34693
      H1    12.75504   11.55813    6.12581
       H    11.05160   17.46779    7.29719
       O    11.53319   16.83049    6.78633
      H1    10.85831   16.14923    6.53286
       H    13.32889   18.94883   -5.88356
       O    13.99896   18.22033   -5.85474
      H1    13.55722   17.44571   -6.24859
       H    18.75086   15.76159    5.55337
       O    17.99211   15.42215    5.07974
      H1    17.87859   14.56470    5.52540
       H    17.56944   17.51064    8.93775
       O    18.42662   17.78117    8.62741
      H1    18.35308   18.64589    8.32827
       H    11.35023   12.66618    0.61954
       O    10.51949   12.14706    0.51842
      H1    10.82370   11.30616    0.83864
       H    16.32182    9.85945   -2.03222
       O    15.36906    9.94961   -1.88077
      H1    15.15459    9.09452   -1.40370
       H    16.03891   16.16886    5.30852
       O    15.30686   16.79103    5.33781
      H1    15.68719   17.70456    5.36814
       H    14.44379   11.90488    0.46484
       O    15.30307   11.45745    0.32499
      H1    15.22750   11.02295   -0.55802
       H    10.28780   15.30123    2.01160
       O     9.38735   15.65221    1.67695
      H1     8.80280   14.82227    1.79772
       H    16.73623   18.71576   -0.31035
       O    17.61663   18.95280   -0.66383
      H1    17.54273   18.75957   -1.59483
       H    15.58435   10.61357    1.82131
       O    15.32088   10.34622    2.72337
      H1    15.94693    9.77250    3.14089
       H    16.80805   18.36718   -3.62603
       O    17.55458   18.99794   -3.38455
      H1    17.02162   19.84433   -3.44992
       H    12.43102   13.76252    3.44679
       O    11.94393   12.91595    3.53925
      H1    12.41474   12.21310    3.08314
       H    15.13276   17.33939   -4.69350
       O    15.71451   17.07392   -3.94761
      H1    15.96004   16.10980   -4.08647
       H    17.49539    7.23012    1.64221
       O    17.68733    7.81595    0.85142
      H1    18.37632    7.36120    0.45249

