168
frame 6 | Written by MDAnalysis XYZWriter (release 2.4.3)
       H   -14.31149  -12.07863   10.11129
       O   -14.13444  -12.53047    9.33502
      H1   -14.48881  -11.98846    8.61331
       H   -15.83075  -12.65863   -0.08655
       O   -16.26523  -12.74381   -0.92901
      H1   -16.77063  -13.52977   -0.78224
       H   -20.22060  -13.47985    0.22211
       O   -19.43733  -13.05395   -0.10622
      H1   -19.03518  -12.67283    0.67866
       H   -16.76768   -6.89845   -1.19030
       O   -15.83097   -6.63551   -1.26069
      H1   -15.61022   -6.87303   -2.21467
       H   -14.94047   -9.28427    0.96489
       O   -15.69498   -8.77464    0.72433
      H1   -15.37031   -8.22264   -0.08130
       H   -18.00588   -4.72900   -0.32459
       O   -18.52677   -5.10611    0.36167
      H1   -19.15103   -4.37504    0.55588
       H   -17.79495  -19.72306    6.61318
       O   -18.52580  -19.09332    6.90372
      H1   -18.59637  -19.29935    7.86336
       H   -17.65586  -13.05315    2.79960
       O   -18.07995  -12.21960    2.39394
      H1   -17.50023  -11.43368    2.54676
       H    -9.28777  -10.24150    2.67529
       O   -10.10086  -10.05059    3.16782
      H1   -10.66554  -10.83566    3.08398
       H   -18.08159  -15.77074    6.36251
       O   -18.72214  -15.04666    6.62857
      H1   -19.52212  -15.12914    6.05795
       H   -17.65712  -14.89140   -4.55656
       O   -18.64722  -14.85860   -4.61388
      H1   -18.94119  -15.79973   -4.54186
       H   -16.96800   -9.16675    8.33496
       O   -17.01830   -9.35461    7.38892
      H1   -17.88164   -9.58070    7.13201
       H   -17.64986  -14.99518    4.03656
       O   -17.20895  -14.57491    3.23722
      H1   -16.61738  -13.99056    3.68217
       H    -9.97925  -14.38047    4.21352
       O    -9.85256  -13.53768    3.75368
      H1    -9.29863  -13.64039    3.00557
       H   -16.05939  -19.02516   -0.10786
       O   -16.05436  -18.06647    0.24225
      H1   -16.03713  -18.09060    1.25504
       H   -18.42289   -8.44582   -1.16608
       O   -18.81544   -7.52756   -1.05742
      H1   -19.01097   -7.41756   -0.10675
       H   -16.30075  -17.49562    4.06124
       O   -15.63780  -17.69134    3.38320
      H1   -15.06656  -18.32913    3.73712
       H   -15.28119  -13.98292    9.18823
       O   -15.96993  -14.69908    9.17522
      H1   -15.95632  -15.19795   10.00511
       H   -14.51999   -3.96671    2.73767
       O   -15.22416   -3.75026    2.05782
      H1   -15.24281   -4.41664    1.33474
       H   -18.04590  -13.46979    6.58033
       O   -17.60753  -12.56594    6.43361
      H1   -17.59036  -12.22580    7.29678
       H   -12.44921  -11.81468    4.14146
       O   -12.26659  -12.02697    3.23100
      H1   -11.39380  -12.50512    3.23661
       H   -14.98993  -13.94967    1.81514
       O   -14.42693  -13.21922    1.38155
      H1   -13.64089  -13.12479    1.92124
       H   -12.15204  -16.09846    1.85706
       O   -11.48819  -16.57198    1.36344
      H1   -11.19215  -15.98464    0.67057
       H   -17.22262   -9.16645    3.53155
       O   -17.26449   -9.63378    2.69345
      H1   -16.56857   -9.26053    2.13092
       H   -12.03495  -11.92681    6.32721
       O   -12.18620  -11.09190    5.84163
      H1   -11.28165  -10.66811    5.89859
       H   -15.27415   -9.57525   -3.98249
       O   -14.85984   -9.02009   -4.63648
      H1   -15.47175   -9.08807   -5.42722
       H   -18.77201  -14.26774   -1.11936
       O   -18.42447  -14.87033   -1.83623
      H1   -18.67069  -14.47055   -2.65155
       H   -17.03293  -11.47183   -5.43091
       O   -16.90385  -11.23897   -4.51365
      H1   -17.70473  -10.70359   -4.38900
       H   -18.84773   -9.24491    1.89663
       O   -19.30764   -8.52584    1.47282
      H1   -19.81502   -8.88258    0.78664
       H   -11.11205   -6.27417    5.09613
       O   -11.76487   -6.97837    5.14572
      H1   -11.61857   -7.28133    4.24638
       H   -16.94271  -10.06228   -1.23421
       O   -17.57808   -9.74173   -1.87835
      H1   -18.30961  -10.37960   -1.91087
       H   -13.59848   -9.21259    2.82917
       O   -14.10130  -10.00262    2.74006
      H1   -13.39855  -10.64701    2.51736
       H   -13.47875  -10.29702   -4.83094
       O   -12.91517  -11.03090   -4.44024
      H1   -13.56766  -11.60920   -4.09003
       H   -18.35483  -16.40607   -1.06719
       O   -18.50165  -17.30322   -0.79278
      H1   -17.76208  -17.69922   -0.33447
       H   -17.53912   -4.96509    4.41694
       O   -17.58944   -4.05154    4.21755
      H1   -16.69191   -3.92581    3.82063
       H   -15.76122  -12.11524   -3.67606
       O   -14.94610  -12.69552   -3.49601
      H1   -15.06914  -12.91369   -2.56313
       H   -15.02885  -11.59642    4.14235
       O   -15.30747  -12.33441    4.68735
      H1   -15.63037  -11.95130    5.55064
       H   -17.40715  -13.22724    9.28753
       O   -17.98630  -12.48765    9.11647
      H1   -17.98658  -11.90234    9.87803
       H   -14.56343  -16.58198    7.32955
       O   -15.06958  -15.83921    6.94292
      H1   -15.58720  -15.53131    7.72689
       H   -10.94796   -8.78029    2.60379
       O   -11.67917   -8.19397    2.52349
      H1   -11.69840   -7.72497    1.66534
       H   -18.07063  -18.15091   -2.36415
       O   -17.83943  -18.43673   -3.23753
      H1   -18.14059  -19.31386   -3.25958
       H   -17.76638  -17.49805    6.16831
       O   -17.22997  -16.83483    5.69982
      H1   -16.37038  -16.69463    6.05129
       H   -11.94404  -13.74121   -1.81829
       O   -11.69901  -14.23055   -1.03305
      H1   -12.44422  -14.14414   -0.49150
       H   -17.11550   -5.81680    1.62996
       O   -16.42752   -6.39704    1.88591
      H1   -16.55515   -7.27351    1.53846
       H   -11.98311  -13.13978    8.18738
       O   -11.47447  -13.27492    7.35362
      H1   -12.10062  -13.62544    6.72617
       H   -15.44077  -10.46241    7.11950
       O   -14.82409  -11.21594    7.06284
      H1   -13.99548  -10.82560    6.68633
       H   -14.06554  -13.43091    5.35829
       O   -13.46054  -14.13845    5.65825
      H1   -14.10050  -14.67179    6.20907
       H   -14.08900  -15.80480    3.05664
       O   -13.21387  -15.39021    3.26902
      H1   -13.42055  -14.95013    4.09400
       H   -15.96881   -6.33749    5.20122
       O   -16.74866   -6.59419    4.66484
      H1   -16.43777   -6.75706    3.75294
       H   -15.54386  -13.99540   -4.72335
       O   -16.01071  -14.78628   -5.00350
      H1   -15.40816  -15.54120   -4.90413
       H   -14.10404   -6.05232    6.72869
       O   -14.77863   -5.57648    6.11102
      H1   -14.82272   -4.76925    6.61828
       H   -18.55853   -6.75632    5.74419
       O   -19.46935   -6.55559    5.58651
      H1   -19.57290   -6.38039    4.64237
       H   -10.36390   -9.56255   -2.62114
       O   -10.98355  -10.08351   -2.09491
      H1   -11.80421  -10.13117   -2.63729
       H   -12.90200  -14.08425   -4.31924
       O   -12.14901  -13.97857   -3.68894
      H1   -12.26391  -14.77794   -3.16809
       H   -12.88398  -17.64716    0.31454
       O   -13.14304  -18.23749   -0.39530
      H1   -14.08874  -18.23415   -0.44992
       H   -12.81384   -6.74331   -1.35529
       O   -12.27266   -7.13413   -0.67414
      H1   -11.65684   -7.72709   -1.12230

