168
frame 3 | Written by MDAnalysis XYZWriter (release 2.4.3)
       H    -1.02419  -15.83124  -10.51186
       O    -1.99074  -15.93717  -10.56541
      H1    -2.38826  -15.04103  -10.61764
       H     6.37222   -8.15130  -12.73444
       O     5.93580   -8.96539  -12.50018
      H1     6.67421   -9.53798  -12.18139
       H     1.71197  -12.19315   -6.18593
       O     1.07836  -12.62506   -6.77631
      H1     0.36182  -13.04549   -6.21651
       H     8.28548   -8.87427  -10.43395
       O     7.63857   -8.91994   -9.67579
      H1     6.93191   -8.32444   -9.95561
       H    -5.04408  -11.84405  -16.02373
       O    -4.69917  -12.72075  -15.63925
      H1    -4.26222  -13.27605  -16.34086
       H    -6.38130  -10.92773  -10.52124
       O    -6.27352   -9.98259  -10.85490
      H1    -5.34371   -9.79941  -10.81131
       H     0.52684   -9.86538  -12.03719
       O     0.81602   -9.52926  -12.89868
      H1     0.53873  -10.16681  -13.61997
       H     3.12329   -5.27668  -12.29445
       O     2.73842   -4.97563  -13.19133
      H1     1.76728   -5.07090  -13.26045
       H     6.61826  -12.75513  -11.30677
       O     5.78243  -12.74215  -11.75614
      H1     5.89066  -12.62293  -12.69403
       H     0.52128   -3.96834   -9.97285
       O     0.48339   -4.18880   -9.00342
      H1     0.40976   -5.19948   -8.98428
       H     0.81856   -6.99506  -10.50173
       O    -0.04906   -6.71103  -10.14552
      H1    -0.49780   -6.36716  -10.97719
       H    -2.05410  -11.28038  -17.29481
       O    -1.48139  -12.04000  -17.58192
      H1    -1.66466  -12.15343  -18.54823
       H     5.40573  -12.82948  -15.39672
       O     5.41419  -13.62542  -15.94515
      H1     5.41404  -14.35382  -15.34780
       H    -5.34850  -14.90262  -11.81294
       O    -4.99199  -14.05329  -12.07975
      H1    -5.77568  -13.48403  -12.08401
       H     3.88271   -9.76370   -7.36365
       O     4.30799   -8.90640   -7.49397
      H1     4.46049   -8.80533   -8.43814
       H     2.05467   -7.90787  -11.98342
       O     2.25275   -7.53015  -11.12103
      H1     3.23731   -7.59796  -11.09131
       H    -5.87907   -9.21869  -14.64840
       O    -5.92744   -9.86195  -15.36055
      H1    -6.84635  -10.02250  -15.53215
       H     5.29489   -5.43933  -11.74559
       O     4.47950   -5.61680  -11.26159
      H1     4.36739   -4.94007  -10.61384
       H    -1.94679   -2.55690  -13.92393
       O    -1.24506   -2.70659  -14.47561
      H1    -0.84387   -3.54902  -14.22721
       H    -3.79934   -8.95924  -12.23054
       O    -3.69090   -9.04403  -11.26659
      H1    -3.17967   -8.26092  -11.00743
       H     5.36467  -11.61128   -8.92574
       O     6.24089  -11.84263   -8.62008
      H1     6.43572  -11.23863   -7.93980
       H     2.42235  -11.19269  -17.63133
       O     2.08965  -10.64636  -16.90946
      H1     2.82007  -10.09562  -16.51865
       H     0.81041  -15.83791  -14.59627
       O     1.53021  -16.22334  -15.12349
      H1     1.50396  -17.18580  -14.93780
       H     2.10520  -11.28677   -8.69702
       O     2.97358  -10.98123   -8.76904
      H1     2.87351  -10.38922   -9.55212
       H    -5.70921  -11.81699  -13.85056
       O    -6.49877  -11.91748  -13.28905
      H1    -6.70570  -11.10171  -12.84613
       H    -3.96453  -13.58565  -10.69335
       O    -3.12004  -13.56710  -10.23726
      H1    -3.14205  -13.08558   -9.45155
       H     1.19733  -13.46116  -15.85584
       O     0.72954  -13.51902  -16.67758
      H1    -0.15741  -13.09911  -16.57680
       H     2.70577   -8.87789   -6.65149
       O     1.90253   -8.75863   -6.14297
      H1     1.95977   -9.40158   -5.46508
       H    -4.04773   -9.52389  -17.05340
       O    -3.23103   -9.45803  -16.56423
      H1    -3.41080   -9.37478  -15.58689
       H     0.32854  -13.89226  -12.78013
       O     0.41149  -13.72195  -13.71358
      H1    -0.42785  -13.34414  -13.83559
       H    -1.24313   -7.75038  -14.67051
       O    -1.02565   -7.50304  -13.74736
      H1    -0.41323   -8.16561  -13.38027
       H    -0.97029  -10.88991  -10.77448
       O    -0.03563  -10.77860  -10.42809
      H1     0.31250  -11.69634  -10.45798
       H    -3.54178   -7.97504  -13.97190
       O    -3.25632   -8.87227  -14.01061
      H1    -2.31187   -8.74984  -14.02965
       H     4.14804  -16.27293  -13.12585
       O     3.15723  -16.23655  -12.92326
      H1     2.68059  -16.17252  -13.78152
       H    -4.37250   -5.86983   -9.06363
       O    -4.34185   -6.68919   -8.57689
      H1    -3.53930   -7.18630   -8.80186
       H     3.10627  -14.23390  -12.21857
       O     3.31801  -13.48042  -11.58591
      H1     4.25256  -13.17009  -11.60366
       H    -3.09637  -11.40358   -7.91090
       O    -3.61441  -12.20794   -7.77195
      H1    -4.47168  -11.85253   -7.56955
       H    -0.61917  -10.81451   -7.01934
       O    -1.49958  -10.33031   -7.11088
      H1    -1.56283   -9.46969   -6.60047
       H     5.58868  -10.34835  -13.69442
       O     5.13773  -11.09314  -14.16033
      H1     4.34119  -11.14922  -13.70040
       H    -2.64011  -10.59291  -11.38319
       O    -2.28797  -11.51785  -11.59382
      H1    -2.65819  -12.20025  -10.98097
       H    -3.15799   -5.77605  -11.00843
       O    -2.53246   -6.44691  -11.33534
      H1    -2.48556   -6.42515  -12.30232
       H    -3.22723   -5.72865  -14.64822
       O    -3.76644   -6.24165  -14.01518
      H1    -4.73099   -6.13991  -14.34272
       H     4.47386   -8.30949  -15.33976
       O     4.38875   -9.15086  -15.80323
      H1     4.71879   -9.90490  -15.18405
       H     3.67537   -6.07281  -14.52559
       O     4.12451   -6.36286  -15.33425
      H1     3.54390   -6.06768  -16.05344
       H     1.37934  -13.04091  -10.41019
       O     0.49156  -13.37439  -10.42564
      H1     0.56030  -14.04937   -9.74700
       H     3.36951  -14.66812   -9.96723
       O     3.50175  -14.88906   -9.05570
      H1     4.47029  -14.88340   -8.94533
       H     0.64119   -7.50963   -6.89732
       O     0.02169   -6.86240   -7.04440
      H1    -0.65806   -7.19349   -7.62201
       H    -0.41543   -7.32323  -18.99316
       O    -0.19062   -6.69861  -18.27177
      H1     0.76612   -6.66950  -18.34789
       H    -2.96905  -12.19137  -14.53242
       O    -2.02529  -12.32303  -14.31832
      H1    -2.07140  -12.22439  -13.35483
       H    -1.19290   -7.89909   -9.46092
       O    -1.89588   -8.20409   -8.85866
      H1    -1.60161   -9.06678   -8.57344
       H    -2.40475   -7.91241  -16.43984
       O    -1.98054   -7.03002  -16.33686
      H1    -1.39799   -6.93926  -17.08575
       H    -0.00199   -5.88964  -14.00303
       O     0.26025   -4.97571  -14.04939
      H1     0.69803   -4.86216  -14.90523
       H     4.93110   -6.97705  -10.13252
       O     4.92220   -7.92642  -10.05543
      H1     5.19134   -8.36290  -10.92038
       H    -0.70391  -11.09471  -15.08039
       O    -0.04191  -10.40757  -15.17913
      H1     0.69475  -10.63546  -15.79379
       H     2.97878  -11.97554  -12.25202
       O     3.10085  -11.03872  -12.49188
      H1     2.40932  -10.71340  -13.08610
       H     3.66169   -3.29588   -8.62050
       O     3.32490   -4.17981   -8.77147
      H1     2.39797   -3.98432   -8.60616

