168
frame 8 | Written by MDAnalysis XYZWriter (release 2.4.3)
       H    -4.85292   -2.90203  -12.67257
       O    -4.11953   -3.12445  -12.11298
      H1    -3.33747   -2.74062  -12.42005
       H   -11.42183   -1.65025  -10.05357
       O   -10.95565   -0.83225  -10.22192
      H1   -10.87296   -0.66747  -11.15666
       H    -9.26292   -4.41158  -15.42032
       O    -9.23864   -5.29670  -15.75642
      H1    -9.78304   -5.31482  -16.55168
       H   -16.35379   -0.55308  -10.65278
       O   -15.68662   -0.91777  -11.30598
      H1   -16.05766   -1.63970  -11.88341
       H    -8.03109   -0.57533   -7.77647
       O    -8.01868   -0.83391   -8.73906
      H1    -8.95671   -1.05640   -8.94141
       H    -7.73575    0.64356  -16.55129
       O    -7.36595    0.91842  -15.69719
      H1    -7.32676    1.88363  -15.65668
       H    -3.24058   -2.87549  -17.67997
       O    -3.18731   -2.72422  -16.62906
      H1    -3.08826   -1.74700  -16.58898
       H   -13.84291   -1.65753  -16.49834
       O   -14.27579   -0.83576  -16.68734
      H1   -14.56162   -0.38693  -15.86979
       H   -17.10735   -3.44728  -13.46456
       O   -16.13573   -3.26513  -13.37400
      H1   -15.74490   -4.10411  -13.24175
       H   -13.29323   -5.49588  -12.15037
       O   -13.14972   -5.39241  -11.21242
      H1   -12.62096   -4.55419  -11.16404
       H    -9.13900   -3.35554  -18.57474
       O   -10.09919   -3.45007  -18.74420
      H1   -10.22362   -4.05578  -19.51125
       H    -8.50097   -5.01209  -10.56914
       O    -8.72634   -5.81773  -10.11134
      H1    -9.47321   -6.13938  -10.60285
       H   -14.81566    0.90461  -11.38260
       O   -14.54012    1.77867  -11.12247
      H1   -15.24995    2.18226  -10.67923
       H   -10.78335   -8.63978  -18.66709
       O   -10.14186   -7.92058  -18.25276
      H1    -9.30286   -8.43547  -18.14014
       H   -12.82738    1.99855  -10.19917
       O   -12.10445    1.83027   -9.62485
      H1   -11.78488    0.91650   -9.85670
       H    -4.25994   -0.18409  -14.83678
       O    -4.82905   -0.90631  -14.53904
      H1    -5.48216   -0.34507  -14.09186
       H   -14.21328   -1.66780  -12.40623
       O   -13.28558   -1.92930  -12.54043
      H1   -12.87848   -1.83147  -11.66957
       H   -12.61283   -8.73126  -16.52986
       O   -12.57451   -7.88665  -16.98029
      H1   -11.82035   -7.75183  -17.58768
       H   -11.55903    4.95670  -11.04073
       O   -11.37469    4.55127  -11.89622
      H1   -12.18612    4.24022  -12.28626
       H    -6.62506    1.42149  -11.14270
       O    -6.83858    0.50957  -10.89441
      H1    -7.60000    0.48465  -10.31465
       H    -7.20357   -2.97998  -17.62634
       O    -7.48667   -3.08368  -18.60426
      H1    -6.94983   -3.89113  -18.84183
       H   -15.94426   -0.86582  -19.15866
       O   -15.22616   -1.49245  -19.31826
      H1   -14.76399   -1.43566  -18.42491
       H   -10.15466    3.19742  -11.85853
       O    -9.21148    2.90193  -11.75182
      H1    -8.74584    3.68771  -12.14861
       H   -10.30424   -6.52232  -13.29422
       O   -10.32814   -6.45913  -12.29457
      H1   -11.20350   -6.04691  -12.16100
       H    -8.79280    2.93369  -10.02698
       O    -8.49599    2.98160   -9.10818
      H1    -8.81226    2.18538   -8.66182
       H    -7.65917   -3.01978  -12.64126
       O    -7.14917   -2.17101  -12.71377
      H1    -7.46924   -1.62545  -12.01064
       H   -12.22991   -3.36696  -13.37295
       O   -11.55230   -3.99053  -13.51576
      H1   -11.90576   -4.74695  -13.93998
       H   -14.88399   -3.61488  -17.49034
       O   -14.26562   -4.21509  -17.98094
      H1   -14.27970   -3.94604  -18.90258
       H    -9.62231   -1.63317  -15.50646
       O    -9.58120   -2.53009  -15.09799
      H1   -10.44137   -2.75166  -14.71437
       H    -2.31265   -5.56129  -15.68426
       O    -2.54540   -5.32354  -16.59465
      H1    -2.90593   -4.45409  -16.59375
       H    -9.84418    4.15123  -18.00548
       O    -9.76688    3.39791  -17.37152
      H1   -10.67811    3.16636  -17.14803
       H    -4.13573   -2.36707  -19.59857
       O    -3.54429   -3.06364  -19.19412
      H1    -3.12175   -3.59393  -19.88377
       H    -5.62711   -7.40980  -16.85568
       O    -6.48051   -7.48205  -16.46822
      H1    -7.07033   -6.81250  -16.78721
       H   -14.94250   -5.98560  -17.10179
       O   -15.06851   -6.92921  -17.03213
      H1   -14.09719   -7.18488  -17.06410
       H   -10.40682    0.74108  -19.27087
       O    -9.89840    1.54420  -19.38821
      H1    -9.98045    2.11132  -18.61838
       H    -6.32407   -1.14567  -18.23307
       O    -6.20130   -0.25296  -17.88930
      H1    -6.15400   -0.21731  -16.97183
       H    -5.04822    4.42794  -18.71992
       O    -5.39751    4.06806  -17.80937
      H1    -6.06479    3.40584  -18.10166
       H   -14.25213    4.24983  -13.14741
       O   -13.60502    3.55345  -13.25841
      H1   -13.96788    2.78499  -12.74483
       H   -11.79753   -7.09717  -15.67422
       O   -11.32649   -6.66385  -14.92898
      H1   -10.47222   -6.41838  -15.36573
       H   -16.72926   -3.36671  -16.83832
       O   -16.06157   -2.97888  -16.24858
      H1   -16.09402   -3.53055  -15.49221
       H   -10.02551   -1.37712  -13.53769
       O   -10.15275   -0.50158  -13.19557
      H1    -9.30734   -0.01221  -13.31900
       H   -11.45501   -3.68397   -8.58920
       O   -11.91429   -3.37201   -9.32119
      H1   -12.86467   -3.26341   -9.13655
       H    -7.31279    4.45452  -16.00721
       O    -7.61358    3.64586  -15.43194
      H1    -8.49319    3.65401  -15.82563
       H    -1.88225    0.35865  -17.00514
       O    -2.54485    0.20524  -16.29209
      H1    -2.19047    0.63612  -15.48100
       H   -12.83020   -3.77030  -17.25444
       O   -11.96275   -3.52730  -16.85322
      H1   -11.26115   -3.52803  -17.59749
       H   -11.13613   -0.70604  -17.36779
       O   -11.05140   -0.44862  -16.43235
      H1   -11.40035   -1.17428  -15.88768
       H    -3.67011   -7.36378  -12.46619
       O    -4.67275   -7.39067  -12.57044
      H1    -4.83059   -6.73651  -13.27675
       H    -6.55218    1.13425  -18.93726
       O    -6.82985    1.97831  -19.28547
      H1    -7.76778    1.98569  -19.49186
       H    -8.76061   -5.24088  -13.24426
       O    -8.02337   -4.72679  -12.90221
      H1    -7.24764   -5.10318  -13.36386
       H   -12.80965    2.57387  -16.22759
       O   -12.06825    2.15075  -16.71241
      H1   -11.93532    1.24119  -16.34612
       H    -4.82275   -0.45036  -10.44535
       O    -4.25151   -1.13250  -10.19624
      H1    -4.31031   -1.88137  -10.76536
       H    -7.43881   -2.50121  -15.30718
       O    -6.61628   -2.66104  -15.87719
      H1    -5.93670   -2.15456  -15.46382
       H    -6.15468   -4.49987  -14.94700
       O    -5.80798   -5.34803  -14.69128
      H1    -6.12347   -6.00128  -15.32544
       H   -15.16611    1.50963  -14.64502
       O   -14.65159    0.72696  -14.30346
      H1   -13.73357    1.03172  -14.09158
       H    -7.25575    4.23412  -13.80432
       O    -7.35970    4.67470  -12.98699
      H1    -6.65811    5.38564  -13.00877
       H   -14.01750   -7.10980  -13.70708
       O   -14.37372   -6.26865  -13.41975
      H1   -14.94658   -6.32615  -12.60922

