168
frame 7 | Written by MDAnalysis XYZWriter (release 2.4.3)
       H    17.30791   15.82228    3.09466
       O    16.98016   15.63474    2.20353
      H1    17.54002   14.91009    1.76479
       H     8.65229   16.44477    3.32088
       O     8.62650   17.38902    3.62644
      H1     8.47659   17.40523    4.58649
       H    16.47670   13.17914    4.29286
       O    17.05616   12.49455    3.81326
      H1    16.63268   11.64753    3.74571
       H    16.62317   14.76759   -3.13701
       O    16.04475   14.86187   -3.87906
      H1    15.25065   14.42919   -3.60096
       H    16.74928   15.60271   -7.18691
       O    17.19542   15.93973   -6.40091
      H1    16.87659   15.48042   -5.57124
       H    14.02648   16.72554    2.97119
       O    14.20572   15.83161    2.67014
      H1    15.12975   15.78002    2.50653
       H    14.88014   11.91998   -3.87069
       O    14.28327   12.07746   -4.60437
      H1    13.79508   11.25385   -4.78501
       H    15.59158   15.47778   -8.95326
       O    15.98031   14.75144   -8.45636
      H1    16.48579   14.11858   -8.98104
       H    18.04945   10.97912   -2.30680
       O    17.44514   10.71357   -3.01106
      H1    16.66858   10.31674   -2.62709
       H    17.70909   12.86937    1.78166
       O    17.80952   13.33684    0.93966
      H1    16.97071   13.26487    0.46451
       H    14.10685   19.01396   -1.26556
       O    14.57425   19.61792   -1.79442
      H1    14.82437   19.08512   -2.61805
       H    14.07914   16.34307    8.10156
       O    14.14705   16.08179    9.03800
      H1    15.09327   15.82235    9.21560
       H    10.75457   18.18815   -6.71593
       O    11.12487   18.61848   -7.54899
      H1    11.19079   17.92763   -8.24740
       H    13.04754   19.17147    2.75358
       O    13.86461   19.14829    2.29801
      H1    14.35892   19.88869    2.65693
       H    18.62270   16.80951    1.29952
       O    19.22582   17.41743    0.88067
      H1    18.72565   18.09946    0.39919
       H    11.03868   17.82310   -2.13093
       O    11.10702   18.48340   -2.87158
      H1    11.96082   18.87417   -2.71865
       H    17.66440    9.67343    2.79121
       O    16.70668    9.58412    3.01980
      H1    16.70020    8.95681    3.79927
       H    17.71661   10.34275   -4.83284
       O    17.79287    9.86856   -5.66998
      H1    16.89447    9.81653   -5.90175
       H    19.40714   10.15234   -0.32663
       O    19.44086    9.25354    0.03338
      H1    18.72363    8.72254   -0.21758
       H    11.46662   11.03844   -1.05290
       O    11.78683   10.70661   -1.91131
      H1    11.51289    9.81096   -1.84657
       H    17.95944   11.76564    5.67903
       O    17.54491   11.41068    6.48493
      H1    18.21931   10.84484    6.85330
       H     8.09734   15.57341    0.25208
       O     7.77595   15.26931   -0.63252
      H1     7.66094   14.33038   -0.55391
       H    17.98096   18.22917   -8.18385
       O    17.04385   18.32825   -7.80111
      H1    16.97766   17.74524   -7.01269
       H    13.64427   17.35386    5.82944
       O    14.47369   17.34694    6.31405
      H1    14.57425   18.26137    6.65427
       H    12.46622   15.74976    1.50749
       O    11.84825   15.50579    0.82134
      H1    11.55646   16.31670    0.36403
       H    10.57578   13.46869    4.98129
       O    10.65066   12.56331    4.59470
      H1    11.37641   12.58389    3.97450
       H    12.55482   14.44359   -0.31094
       O    12.96240   13.72601   -0.87663
      H1    12.25254   13.73439   -1.62337
       H    16.62293   17.49585    1.62840
       O    16.41711   18.38965    1.39774
      H1    15.43004   18.49983    1.50147
       H    15.65552   15.18833    5.20651
       O    15.47004   14.25911    5.27829
      H1    15.96698   13.90229    6.08209
       H    12.51068   19.17980    9.22899
       O    13.19275   19.84932    9.25902
      H1    13.87984   19.46017    8.64098
       H    19.96511   12.18903   -1.37162
       O    19.30360   11.63492   -0.97667
      H1    18.81742   12.31971   -0.41357
       H    17.98156   19.83972    8.44707
       O    17.48166   19.20753    7.85991
      H1    17.62257   19.63147    7.00641
       H    14.12710   17.24222   -8.96667
       O    14.96316   17.28372   -9.41244
      H1    15.60468   17.79537   -8.95078
       H    10.05078   16.20735   -0.99715
       O    10.21752   17.05961   -0.63953
      H1     9.42704   17.63850   -0.51462
       H    10.79930   15.01951   -3.69950
       O    10.48647   14.60243   -2.83532
      H1     9.48319   14.64037   -2.93247
       H    12.25492   18.89007   -0.07045
       O    13.06371   18.32227   -0.09980
      H1    13.46856   18.72196    0.76450
       H    11.10444   17.86778    4.71358
       O    11.12036   18.56321    4.00955
      H1    10.39530   18.18915    3.49110
       H    14.28043   13.04143   -6.32663
       O    13.99125   13.45581   -7.16962
      H1    14.77085   13.76513   -7.68376
       H    10.79754   14.75372   -6.22903
       O    11.00981   15.35510   -5.47247
      H1    10.59493   16.21144   -5.47213
       H    11.30257   16.99651    6.95136
       O    11.06474   16.56674    6.14414
      H1    10.27773   16.08100    6.29683
       H     7.49820   18.62103    0.74664
       O     7.84039   18.48201   -0.14565
      H1     8.07845   19.40106   -0.40065
       H    13.13485   19.63295   -5.88972
       O    13.67961   18.86315   -5.57169
      H1    13.42084   18.19324   -6.20214
       H    19.01578   15.00542    5.36231
       O    18.29985   14.95127    4.67167
      H1    18.14632   14.01268    4.44020
       H    10.10482   18.23365   -4.44443
       O     9.84901   17.90039   -5.27077
      H1     9.05025   18.41299   -5.56700
       H    18.17797   16.13170    8.28787
       O    18.61226   16.79998    7.66874
      H1    18.14985   17.59861    7.74799
       H    12.04104   12.45102    1.65787
       O    11.68525   12.20950    0.75945
      H1    12.08220   12.89129    0.16439
       H    16.11184   17.57732    5.30980
       O    16.91883   17.60199    4.75640
      H1    17.58840   17.17263    5.27368
       H    14.64158   13.13685   -0.45019
       O    15.54504   12.73033   -0.55335
      H1    15.47361   11.82285   -0.84469
       H    10.02128   15.49024    1.35797
       O     9.10912   15.33360    1.69896
      H1     9.06275   14.36432    1.91375
       H    17.29642   19.18081   -0.01155
       O    18.06841   19.40450   -0.56880
      H1    17.88321   19.00374   -1.42686
       H    15.00486   10.34255    2.71781
       O    14.13618   10.56692    3.11706
      H1    14.22572   10.55352    4.08818
       H    17.14731   18.23252   -3.41288
       O    18.00658   18.50089   -3.03107
      H1    18.17200   19.28038   -3.48844
       H    13.47407   13.89182    3.45263
       O    13.03825   13.06074    3.14901
      H1    13.63075   12.28576    3.17119
       H    14.72703   17.74956   -4.34679
       O    15.45838   17.69166   -3.67701
      H1    15.68381   16.76760   -3.57668
       H    18.45592   13.74380   -3.65214
       O    18.63000   14.17750   -2.80738
      H1    19.17128   14.94999   -3.10562
       H    13.90389   15.47103   -6.72433
       O    13.41406   16.28872   -6.53099
      H1    12.61979   15.96506   -6.12566

