168
frame 3 | Written by MDAnalysis XYZWriter (release 2.4.3)
       H     5.47103   -5.20930  -15.29492
       O     6.31556   -4.64046  -15.05051
      H1     5.83951   -3.87454  -14.67634
       H     2.89133    2.23873  -10.13532
       O     3.86087    2.22435  -10.30966
      H1     4.29320    2.46532   -9.51942
       H     0.19667    1.89968   -8.39048
       O     0.89164    2.26307   -8.92830
      H1     0.76274    2.39003   -9.84605
       H     3.12329   -5.27668  -12.29445
       O     2.73842   -4.97563  -13.19133
      H1     1.76728   -5.07090  -13.26045
       H     7.38938    0.28323  -18.65805
       O     6.56215    0.43881  -19.14924
      H1     5.96202    0.68563  -18.45179
       H    -0.81590    4.85220  -13.70453
       O    -1.30341    4.03255  -13.86032
      H1    -1.62014    3.73924  -13.00687
       H     4.22291    4.95261  -19.06598
       O     3.30730    4.68392  -18.65510
      H1     2.98126    5.51925  -18.31767
       H     9.85771   -0.14723  -17.78189
       O     9.45131    0.52083  -17.22156
      H1    10.00661    0.55245  -16.41142
       H    -0.94042    5.98592  -17.72213
       O    -1.32714    6.42195  -16.93711
      H1    -1.85792    7.18525  -17.16999
       H     1.41739    2.87430  -14.96328
       O     2.06614    2.70470  -14.22131
      H1     1.49140    2.56484  -13.45337
       H    -1.94679   -2.55690  -13.92393
       O    -1.24506   -2.70659  -14.47561
      H1    -0.84387   -3.54902  -14.22721
       H     0.36178    3.19055  -18.01604
       O     0.74341    3.27499  -18.96450
      H1     1.63124    3.62488  -18.84634
       H     0.39476    2.31751  -12.30337
       O     0.87650    2.72456  -11.59054
      H1     0.66590    3.63404  -11.48161
       H     5.47701   -0.37566   -8.42703
       O     5.82762    0.22764   -9.07597
      H1     4.95116    0.43032   -9.43816
       H     5.64654    3.33582  -13.31834
       O     6.05452    2.67109  -13.94188
      H1     6.76339    2.28694  -13.36922
       H     9.47102    3.71229  -15.40626
       O     9.97060    3.29806  -14.70458
      H1     9.58591    2.43991  -14.61126
       H     1.69704    5.56809  -10.12394
       O     0.96426    5.53777  -10.77063
      H1     1.25463    6.01745  -11.56847
       H     1.84881   -0.71372  -16.20007
       O     2.14485   -0.63975  -17.12003
      H1     2.73211    0.12437  -17.20229
       H     9.01261   -0.10532  -13.50798
       O     9.20183   -0.91398  -14.02951
      H1    10.15731   -0.81344  -14.20574
       H     3.51883    7.93660  -18.51939
       O     2.74043    7.50352  -18.07424
      H1     2.39001    8.17983  -17.53058
       H     4.04010    4.80649  -12.79140
       O     4.62826    4.44728  -12.12680
      H1     4.12541    3.68809  -11.81455
       H     4.81372   -2.16316  -13.42962
       O     5.76709   -2.13674  -13.53680
      H1     5.86567   -1.60387  -14.33333
       H     6.49984    5.72283   -9.63038
       O     6.52511    4.93984  -10.19632
      H1     5.80682    4.95168  -10.88488
       H     6.87565   -3.68225   -9.32284
       O     6.92833   -3.71607  -10.28878
      H1     7.26882   -2.83861  -10.59390
       H     3.08366   -1.77724  -12.38986
       O     3.06191   -2.20342  -13.25997
      H1     3.00291   -3.16316  -13.16790
       H     0.47713    7.30325  -13.44272
       O     0.38902    6.32173  -13.53966
      H1     1.28698    6.05479  -13.91550
       H     0.41119    0.10120  -13.39075
       O    -0.17916    0.91077  -13.35928
      H1    -0.63237    0.88530  -12.50086
       H     8.57999    2.84825  -10.28625
       O     9.06040    3.08804  -11.10266
      H1     8.57647    3.83877  -11.39060
       H     3.50833    0.67173  -11.30056
       O     3.62058   -0.25386  -11.60694
      H1     3.97862   -0.06550  -12.48852
       H     6.54597   -0.51218  -16.04227
       O     6.43904   -1.46161  -16.15525
      H1     7.38913   -1.70851  -16.25121
       H     4.82398    1.39770  -14.13140
       O     4.15312    0.70698  -14.40194
      H1     3.39904    1.24868  -14.57596
       H    -2.63105    3.09304  -10.91442
       O    -2.05846    3.82374  -11.04669
      H1    -2.77448    4.57248  -10.98663
       H     8.28923    5.14329  -17.09630
       O     7.86555    4.78465  -16.31167
      H1     7.51526    5.59406  -15.92410
       H     6.80500    1.83895   -9.17525
       O     7.41920    2.56438   -9.02265
      H1     6.92932    3.39672   -9.09127
       H    -2.83051    0.67252  -11.45422
       O    -1.89714    0.78319  -11.41242
      H1    -1.57991    0.37205  -10.61375
       H    -0.18866    1.98883  -16.05879
       O     0.18454    2.89073  -16.17502
      H1    -0.40394    3.48957  -15.73796
       H     2.57180    0.72796   -6.37657
       O     2.53339    0.60984   -7.36732
      H1     2.08056    1.34806   -7.80479
       H     1.85753   -1.69474  -14.17777
       O     1.08622   -1.22901  -14.67523
      H1     0.36037   -1.87757  -14.76098
       H    -2.70119    5.76096  -15.88735
       O    -3.27778    5.43506  -15.15811
      H1    -2.62836    5.13200  -14.53926
       H     7.75565    0.54110  -12.17431
       O     8.13313    1.22655  -12.72162
      H1     8.60474    1.88192  -12.14767
       H    -1.32023   -0.09785  -16.26852
       O    -1.77335    0.52948  -15.69597
      H1    -1.37575    0.39393  -14.83401
       H    -2.93565    1.98404  -16.37138
       O    -3.70262    2.49328  -16.60449
      H1    -3.65540    3.40460  -16.24708
       H     0.07533   -1.12877  -17.58541
       O    -0.86541   -0.80587  -17.75819
      H1    -1.51990   -1.53572  -17.55756
       H     8.90185   -2.45052  -15.26980
       O     8.76318   -3.23128  -15.86193
      H1     8.02281   -3.67748  -15.33844
       H     6.73416    3.84091  -17.35203
       O     5.91301    3.55522  -17.76707
      H1     5.26859    4.20591  -17.52718
       H    -1.87522    5.03426  -19.44627
       O    -0.93314    5.21855  -19.44126
      H1    -0.41572    4.35778  -19.39275
       H    -0.49569   -2.04274  -10.63519
       O     0.05679   -2.61173  -11.26575
      H1    -0.27720   -2.34103  -12.09631
       H     5.26598    7.63725  -15.65939
       O     5.41900    6.77165  -15.28254
      H1     5.82112    7.03088  -14.44304
       H     6.88663    6.50820  -12.24639
       O     6.31697    7.18938  -12.67145
      H1     5.71337    7.55994  -11.97268
       H     4.57588    0.78610  -16.02491
       O     4.89693    1.02576  -16.96774
      H1     5.20676    1.93085  -16.89235
       H     2.60726   -3.57018  -16.48972
       O     1.80323   -4.02829  -16.22178
      H1     1.34005   -4.41501  -16.97510
       H     6.99512   -0.72690  -10.20082
       O     7.20564   -0.88448  -11.11174
      H1     6.47959   -1.24651  -11.53235
       H     3.12228   -2.01389  -17.05789
       O     3.89048   -2.67502  -17.14211
      H1     4.52415   -2.37956  -16.46444
       H    -0.00199   -5.88964  -14.00303
       O     0.26025   -4.97571  -14.04939
      H1     0.69803   -4.86216  -14.90523
       H     3.01870    4.59584  -14.51102
       O     3.05175    5.50182  -14.16662
      H1     3.66469    5.96118  -14.73786
       H     8.16817   -3.16539  -17.72818
       O     7.97645   -3.75255  -18.47501
      H1     7.91553   -3.23455  -19.29214

