168
frame 1 | Written by MDAnalysis XYZWriter (release 2.4.3)
       H   -14.91242   -6.35110   10.31570
       O   -15.85989   -6.59702   10.13036
      H1   -16.19687   -5.74420    9.81287
       H   -14.25823  -12.35939   10.35692
       O   -13.77482  -12.18705    9.54969
      H1   -14.01186  -11.27909    9.32693
       H   -16.73518  -16.92896   16.68678
       O   -16.26493  -16.93601   15.83398
      H1   -16.52555  -17.75500   15.36250
       H   -10.18282  -15.74263   14.06914
       O   -11.10854  -15.80271   13.78283
      H1   -11.31461  -15.08398   13.16995
       H   -17.41496  -10.51785   11.74062
       O   -17.31050  -11.30208   12.33638
      H1   -18.24136  -11.65391   12.35073
       H   -11.30820   -9.83185   17.24006
       O   -11.78466  -10.31601   17.95775
      H1   -12.44388   -9.62196   18.18244
       H   -16.76404   -5.93955   13.11923
       O   -16.14173   -5.20353   13.19357
      H1   -16.15909   -4.74328   14.04035
       H   -14.09410  -10.42465   15.14810
       O   -14.43949  -11.09767   15.78819
      H1   -14.28191  -10.66413   16.66780
       H   -14.54924   -8.07821    7.58437
       O   -15.43917   -8.22731    7.98138
      H1   -15.62183   -7.54921    8.62500
       H   -15.67167  -14.87761   19.53444
       O   -16.39332  -14.49228   18.97673
      H1   -16.00142  -14.58948   18.10105
       H   -11.84036  -14.42129   18.93205
       O   -11.01781  -13.87384   18.96017
      H1   -11.14568  -13.14716   19.55113
       H   -10.22867   -8.05852   15.32299
       O   -10.30388   -8.91575   15.74195
      H1   -10.68293   -9.44982   15.03241
       H   -14.91653  -19.71437   11.55151
       O   -14.86678  -18.91327   12.10021
      H1   -13.89014  -18.83496   12.19843
       H   -17.06177   -7.91267   10.67760
       O   -17.43322   -8.75195   10.97738
      H1   -18.36312   -8.79790   10.69986
       H    -9.06982  -14.06001   15.47788
       O    -8.22985  -14.48380   15.20671
      H1    -8.14766  -14.80857   14.28696
       H   -16.07405  -12.05512   15.67040
       O   -16.86259  -12.57815   15.94906
      H1   -16.99789  -13.21241   15.22343
       H   -10.36750  -10.75896    9.61560
       O    -9.46235  -11.03423    9.34487
      H1    -9.59725  -10.94148    8.41922
       H    -8.22176  -12.15842   10.00550
       O    -7.54282  -12.62512   10.58494
      H1    -7.64442  -12.18688   11.49929
       H   -12.47711   -9.93713   10.62536
       O   -11.78493  -10.58564   10.72414
      H1   -12.17041  -11.34244   10.21062
       H   -17.16365   -8.39716   12.66922
       O   -16.89057   -8.04919   13.52782
      H1   -15.97910   -8.37324   13.69581
       H   -12.20666   -6.45569   11.16974
       O   -11.49131   -6.97404   11.59790
      H1   -11.02779   -7.43006   10.85509
       H    -7.98792  -14.04656   11.95223
       O    -7.78847  -14.80466   12.44551
      H1    -7.35428  -15.39856   11.83449
       H   -17.52250   -9.38614    6.00061
       O   -17.25010   -9.87408    6.76623
      H1   -16.67246   -9.25723    7.24471
       H   -18.80048  -16.23333    9.77901
       O   -18.42709  -15.74360   10.55638
      H1   -18.44374  -14.79218   10.22383
       H   -11.72535  -14.66143    8.18848
       O   -11.15873  -15.04323    8.90047
      H1   -11.50788  -15.89852    9.05498
       H   -13.07702  -12.30460   15.29587
       O   -12.43465  -12.76855   14.72041
      H1   -12.14976  -12.17424   14.02888
       H   -15.42969  -13.15623    8.64733
       O   -16.22505  -13.38803    8.17560
      H1   -16.20679  -14.31435    7.93612
       H   -14.22150  -12.60244   12.81061
       O   -14.49560  -11.81135   12.37444
      H1   -15.46448  -11.80861   12.32631
       H   -12.11829  -18.20927   11.62961
       O   -12.09314  -18.86759   12.33585
      H1   -11.77309  -18.41967   13.08752
       H   -18.46030  -12.57006   16.89265
       O   -19.35395  -12.66075   17.25083
      H1   -19.96584  -12.30387   16.57788
       H   -15.05876  -15.32742   11.55110
       O   -14.73604  -14.66418   12.19709
      H1   -15.32298  -14.64357   12.96268
       H   -12.06740   -7.83583   13.33313
       O   -12.54149   -7.63440   14.11327
      H1   -13.03643   -6.79053   13.92981
       H   -14.66458   -8.85486   11.08149
       O   -14.10714   -8.94392   10.33892
      H1   -14.66420   -8.76052    9.61559
       H    -7.43270  -11.25788   13.85877
       O    -7.84997  -11.23460   12.98051
      H1    -7.47157  -10.36023   12.65398
       H   -11.09859  -12.91853   15.96835
       O   -10.28784  -13.13644   16.46989
      H1   -10.56363  -13.44134   17.37730
       H   -11.70062  -15.96056   15.52331
       O   -11.88019  -16.44281   16.37896
      H1   -11.03920  -16.89465   16.61493
       H   -19.00747   -9.31860   16.88369
       O   -19.63939   -9.19331   17.62945
      H1   -20.10948   -9.99314   17.81912
       H   -12.03820  -14.58495   10.77924
       O   -11.98225  -14.28377   11.73104
      H1   -12.89207  -14.53191   12.09888
       H   -16.87943   -7.03455   15.01198
       O   -16.66528   -6.39465   15.71514
      H1   -16.54177   -6.86152   16.54910
       H   -14.66400  -17.64030   15.90375
       O   -13.90852  -18.26747   15.92019
      H1   -13.13135  -17.61498   16.01229
       H   -15.92572  -19.90397   15.01206
       O   -16.21636  -19.11921   14.53322
      H1   -15.68554  -19.03707   13.70979
       H   -17.43233  -13.17307    9.35886
       O   -18.12921  -13.01630   10.01431
      H1   -17.78642  -12.54340   10.79513
       H   -16.31654  -10.32689   17.53084
       O   -15.70872  -10.03517   18.28722
      H1   -15.85431   -9.10574   18.45881
       H   -15.86837  -16.51967    7.71074
       O   -16.53719  -16.04774    7.19548
      H1   -17.40014  -16.11804    7.66962
       H    -9.22069  -15.13120    9.16866
       O    -8.27802  -15.26560    9.34516
      H1    -7.87831  -14.40580    9.51490
       H   -10.17794  -10.83644   13.33465
       O   -11.08780  -10.60163   13.40324
      H1   -11.36198  -10.47088   12.47172
       H   -13.02484  -12.86801    7.09060
       O   -12.78922  -13.77992    6.80794
      H1   -13.48974  -14.17973    6.28563
       H   -15.61057  -10.86248    6.70559
       O   -14.78465  -11.17104    6.37171
      H1   -14.35941  -10.37342    5.98582
       H   -16.26326  -11.33636   19.25928
       O   -16.60269  -11.96228   19.89118
      H1   -16.67148  -12.81955   19.40279
       H   -12.02863  -18.16543    9.65107
       O   -12.50799  -17.35718    9.87024
      H1   -13.42481  -17.37399    9.60361
       H   -17.75419  -10.74539   15.54604
       O   -17.80150   -9.78191   15.74381
      H1   -17.48543   -9.31335   14.92316
       H    -9.64073   -8.34954    9.15952
       O   -10.54424   -7.98262    9.12072
      H1   -10.41347   -7.41813    8.32246
       H    -8.86564  -12.06519   17.26381
       O    -8.02468  -11.73215   17.65828
      H1    -7.45921  -12.52936   17.71138
       H   -16.74418  -16.43633   10.46574
       O   -15.83635  -16.67260   10.41035
      H1   -15.61375  -17.42151   11.02106
       H   -17.62010  -15.14962   13.97103
       O   -16.74201  -14.79170   14.21600
      H1   -16.43960  -15.49682   14.87363
       H   -14.46694  -10.26187   13.02489
       O   -14.51196   -9.43019   13.56316
      H1   -13.74430   -8.79206   13.55329

