168
frame 11 | Written by MDAnalysis XYZWriter (release 2.4.3)
       H    -3.06439   11.23300    9.49752
       O    -2.21042   11.19349    9.00170
      H1    -1.91448   12.08982    8.81224
       H    -2.29606   13.11407    3.30769
       O    -2.08105   13.99936    3.07380
      H1    -2.86981   14.23758    2.56871
       H    -9.07617    8.54763    7.08778
       O    -8.38700    7.83129    7.26105
      H1    -8.80814    7.26863    7.98107
       H    -0.72322    6.47788    6.33268
       O     0.21212    6.46398    6.59229
      H1     0.55132    5.63438    6.25933
       H    -3.95010    8.05595   -0.82296
       O    -3.65257    7.98755   -1.72755
      H1    -4.23842    7.33730   -2.08753
       H   -10.05036    4.04529    5.11737
       O    -9.84089    4.64630    4.35550
      H1    -8.92451    4.47925    4.00617
       H    -7.61048   13.36697    0.43304
       O    -7.17133   12.54221    0.33966
      H1    -6.34973   12.71261   -0.13168
       H    -8.77487    5.12512    1.97526
       O    -8.81368    5.84068    1.31446
      H1    -9.00404    5.32401    0.53798
       H    -5.81025    7.13255    1.99895
       O    -5.15612    6.58639    2.47508
      H1    -4.35034    7.04397    2.63422
       H   -10.95172    9.87028    7.65590
       O   -10.21210    9.92925    7.07087
      H1   -10.49710    9.90587    6.13131
       H    -1.25473    6.32254    2.44059
       O    -1.55418    6.16274    1.53420
      H1    -2.28802    5.57157    1.46513
       H     0.82613    8.46368    6.49541
       O     1.53019    8.95675    7.01214
      H1     1.33016    9.89413    6.81296
       H   -11.44411    6.95671    3.93335
       O   -10.74645    7.16055    3.32693
      H1   -10.11933    6.47292    3.48898
       H    -8.79228   12.06379    3.10289
       O    -8.61074   11.30433    3.72676
      H1    -8.59016   10.48115    3.24504
       H    -4.58104    5.83569    9.23500
       O    -4.79136    6.51617    9.91863
      H1    -5.49842    7.07824    9.57049
       H    -5.17615    9.92978    4.79394
       O    -5.84578    9.53026    4.30166
      H1    -6.29539   10.21642    3.94467
       H    -5.81964   11.98330   12.79011
       O    -6.28252   11.58864   12.02631
      H1    -5.57446   11.41539   11.39599
       H    -5.79037    9.35834    0.05891
       O    -6.33946    8.56321    0.22785
      H1    -6.50322    8.14387   -0.61569
       H     0.48789    9.27731   10.29232
       O     0.02967   10.11877   10.29778
      H1    -0.62620   10.05700    9.65267
       H    -0.58457   14.66562    3.66486
       O     0.08708   15.26135    3.95904
      H1    -0.45835   15.95370    4.32231
       H    -1.09114   12.60561   -0.34267
       O    -0.78134   11.92542    0.21079
      H1    -0.17116   11.37346   -0.22961
       H    -2.61665    5.10314    5.72670
       O    -2.40680    6.00080    5.80487
      H1    -2.88447    6.27362    6.58856
       H    -4.05388    7.83085   10.77119
       O    -3.93387    8.76873   11.10298
      H1    -3.10900    8.75791   11.62427
       H    -1.30490    5.66022    8.96257
       O    -1.57481    6.55914    8.92375
      H1    -0.79468    6.99530    8.59221
       H    -4.50188   14.14529    1.63601
       O    -3.97230   14.82966    1.15994
      H1    -4.42063   15.65221    1.11872
       H    -6.80267    7.66307    4.53067
       O    -7.45883    6.98715    4.67852
      H1    -7.86350    7.14501    5.60850
       H    -6.06485   13.00575    2.99955
       O    -5.39289   12.88898    2.30361
      H1    -5.90152   12.59622    1.54531
       H    -4.56896   11.47584   -0.44696
       O    -4.56211   10.50085   -0.33308
      H1    -3.81640   10.30908    0.20263
       H    -2.33920   13.95689    6.95568
       O    -1.81722   13.92743    7.76328
      H1    -0.88761   13.92650    7.44893
       H    -5.10642    4.16095    7.22561
       O    -5.31420    4.95694    7.70473
      H1    -5.38417    5.63980    7.02691
       H   -10.13634   13.55353    4.12308
       O    -9.63400   13.76214    3.29009
      H1   -10.29793   13.85893    2.62755
       H    -3.18954    7.71901    4.29032
       O    -3.11990    8.15855    3.43909
      H1    -4.05099    8.42740    3.39123
       H    -2.87048   10.95595    4.87617
       O    -2.58684   11.35619    4.03926
      H1    -3.03968   10.78730    3.36095
       H   -11.15343   13.19188    6.41737
       O   -10.50516   13.79657    5.94535
      H1    -9.78556   13.47621    6.52999
       H    -5.48210    8.29551    8.01587
       O    -6.23338    8.35955    8.63692
      H1    -7.07292    8.10933    8.23191
       H    -2.11007    9.32674    1.91897
       O    -2.43347    9.90697    1.18533
      H1    -1.78217   10.63964    1.01400
       H    -1.17044    7.83535    0.28457
       O    -0.56019    7.95719   -0.46860
      H1    -1.14714    8.32170   -1.18583
       H     0.70662   11.01670    3.02752
       O     1.09962   10.99489    2.13835
      H1     0.49687   11.52129    1.57773
       H   -10.25232   10.52297    4.20849
       O   -10.78714    9.85315    4.57890
      H1   -10.55487    9.03697    4.07074
       H    -4.73786   13.31737   -1.65966
       O    -4.71359   13.14455   -0.74452
      H1    -4.32173   13.96103   -0.26766
       H    -9.43096    8.68428    1.39031
       O    -8.75908    9.36935    1.47514
      H1    -7.96222    9.08205    1.01102
       H    -2.43293   10.52416    7.48500
       O    -2.94566   10.34842    6.67505
      H1    -3.77179   10.98429    6.70798
       H    -0.26790    8.97981    4.04180
       O    -0.20379    9.90435    4.30581
      H1    -1.10797   10.29485    4.27157
       H     0.68762    6.61109    3.29923
       O    -0.06322    7.07842    3.65518
      H1    -0.22284    6.73671    4.52946
       H    -5.30448   11.26185    9.39758
       O    -4.56055   11.34331   10.01730
      H1    -4.42779   10.37491   10.25891
       H    -7.34751    5.13836    0.48169
       O    -6.77737    4.49153    0.07157
      H1    -5.93187    4.67192    0.45447
       H    -9.42783   12.53808    8.59857
       O    -9.07342   12.39287    7.69781
      H1    -9.52561   11.54487    7.36455
       H    -5.34352    3.70744    4.66591
       O    -5.28404    3.18587    5.51192
      H1    -4.35792    2.96084    5.40535
       H    -5.50238   16.60773    5.58712
       O    -5.28492   15.99425    6.33880
      H1    -5.97338   15.95315    6.98683
       H    -8.11448   11.37823   -0.64496
       O    -8.59004   10.78730   -1.27165
      H1    -9.35018   10.53473   -0.71086
       H    -6.59532    9.94635    8.31295
       O    -6.77029   10.91774    8.25708
      H1    -7.72075   11.11098    8.19977
       H   -10.15010   10.29105    0.58923
       O   -10.87059   10.63971    0.15256
      H1   -11.55207    9.95524    0.07838
       H    -6.51197    4.53710    2.83994
       O    -7.12395    4.50532    3.58274
      H1    -7.29051    5.39243    3.88412
       H    -3.98300   14.99782    5.71583
       O    -3.26806   14.36541    5.57258
      H1    -2.93060   14.66947    4.73300
       H    -3.30094    7.37361    8.13219
       O    -3.80123    7.71609    7.33885
      H1    -3.37750    8.55387    7.15605
       H    -5.17070   12.77806    6.63167
       O    -5.19997   11.90474    6.34984
      H1    -5.80747   11.49677    7.03612

