168
frame 4 | Written by MDAnalysis XYZWriter (release 2.4.3)
       H   -17.16313   11.92693  -10.48012
       O   -16.99401   10.98856  -10.77422
      H1   -17.62990   10.46689  -10.25302
       H   -11.61033   17.39096   -0.84264
       O   -11.62135   16.98699    0.02649
      H1   -10.89228   16.33000    0.12055
       H    -5.64779   10.94858  -12.25691
       O    -5.96901   11.82565  -12.26990
      H1    -6.68228   11.80635  -11.59894
       H   -16.65135   11.84106   -5.24665
       O   -17.05717   11.75700   -4.40846
      H1   -17.34361   10.83572   -4.27008
       H   -11.80744   14.18990  -10.65835
       O   -12.67752   13.82328  -10.31826
      H1   -13.14520   13.49083  -11.04669
       H   -14.01430   12.20533  -12.99953
       O   -14.24605   11.87966  -12.13975
      H1   -15.08336   12.33397  -12.02309
       H    -7.87330    9.84665   -8.22106
       O    -8.44894    9.49633   -8.91499
      H1    -9.13340    9.11796   -8.36181
       H   -13.41901   20.09052   -5.03005
       O   -12.54047   19.95192   -4.67667
      H1   -12.59584   19.20441   -4.07140
       H   -10.90305   17.40615   -9.05288
       O   -10.45717   17.19463   -9.91237
      H1    -9.51787   17.24532   -9.66675
       H    -7.88067   12.03419   -4.97254
       O    -7.61201   12.96201   -4.90235
      H1    -7.64108   13.34530   -5.76781
       H   -13.71436    9.65432   -9.74331
       O   -12.85305    9.36751  -10.00119
      H1   -12.33899   10.20992  -10.03499
       H   -13.02229   13.58678   -5.41949
       O   -13.49650   13.88538   -6.20678
      H1   -12.80444   14.15816   -6.86662
       H   -12.63654    9.31830   -5.88212
       O   -13.02485    8.73222   -6.57626
      H1   -13.81206    9.12499   -6.94012
       H   -10.25624   11.53116  -10.02394
       O   -11.07424   11.59062   -9.46873
      H1   -11.52926   12.43569   -9.73754
       H   -10.25164   14.24773  -14.26680
       O   -10.63413   13.71682  -13.60660
      H1   -10.08756   12.91525  -13.74701
       H   -12.74207   16.89691   -3.62154
       O   -12.33023   17.62252   -3.13129
      H1   -11.40109   17.53558   -3.26071
       H   -15.42039   16.89446   -2.52529
       O   -15.62856   16.31704   -1.76720
      H1   -16.28354   15.66525   -2.07802
       H    -6.26926   14.24509  -10.41661
       O    -7.16658   14.08886  -10.18857
      H1    -7.75845   14.65484  -10.74462
       H    -8.43684   18.13518  -12.43959
       O    -7.73142   18.22783  -11.81061
      H1    -7.15172   17.48281  -12.11596
       H   -14.90201   13.03287   -1.76951
       O   -14.02879   12.79710   -2.12150
      H1   -13.59867   12.69503   -1.27210
       H   -10.42758   17.52444   -6.93242
       O   -11.28790   17.36120   -7.30891
      H1   -11.89976   17.32561   -6.55479
       H   -12.62228   13.80836  -14.02040
       O   -13.49110   13.49062  -14.19341
      H1   -13.38199   13.37956  -15.13656
       H   -14.42388   11.13457   -2.64110
       O   -14.71272   10.26679   -2.99761
      H1   -15.49438   10.44112   -3.51226
       H    -9.76785   18.51021   -5.39961
       O    -9.58508   17.63235   -5.19158
      H1    -8.62639   17.47171   -5.31948
       H   -16.41073   14.19223  -11.47189
       O   -16.07031   13.52022  -10.85849
      H1   -15.53139   13.94931  -10.20620
       H    -7.60557   16.32961   -2.00934
       O    -6.72681   16.37012   -1.53642
      H1    -6.37581   15.49052   -1.25152
       H    -4.56426   16.20732   -5.27323
       O    -4.88892   17.13597   -5.33214
      H1    -4.94000   17.41166   -4.36759
       H   -14.44301   17.03522  -11.99628
       O   -14.26160   16.10560  -11.94126
      H1   -14.93511   15.67934  -12.47017
       H    -5.16707   11.40951   -3.74521
       O    -5.71707   11.95328   -3.20434
      H1    -6.30683   12.44038   -3.78866
       H    -7.45629   17.26480   -7.96920
       O    -7.30089   17.51230   -8.85742
      H1    -6.39015   17.18285   -9.06873
       H   -10.07089   12.53888   -0.99878
       O   -10.50205   13.36811   -1.34193
      H1   -10.08035   13.58949   -2.20258
       H   -12.01605   11.96254   -4.44981
       O   -11.83913   12.87838   -4.13129
      H1   -12.14313   12.95331   -3.21196
       H    -9.41716   17.83433   -3.34670
       O    -9.46659   17.95848   -2.39627
      H1    -9.65002   18.92029   -2.36349
       H    -7.54783   15.70661   -6.54204
       O    -7.38848   16.60055   -6.28015
      H1    -6.46775   16.71130   -6.07898
       H   -15.01273   19.79587  -11.09772
       O   -15.80020   19.17494  -11.28986
      H1   -16.54375   19.76057  -11.47280
       H   -13.84652   17.17086   -6.99016
       O   -13.55987   16.79132   -6.17111
      H1   -13.71989   15.84135   -6.27582
       H   -10.83070   11.76459   -7.87292
       O   -10.57149   11.95484   -6.93224
      H1   -10.93736   12.88232   -6.90120
       H   -19.36464   15.94900   -5.13351
       O   -19.36351   15.52123   -6.06352
      H1   -18.44892   15.33911   -6.33351
       H    -6.99867   13.65610  -13.06287
       O    -7.06267   14.47399  -13.60867
      H1    -6.40618   15.11535  -13.20005
       H   -16.02124   18.97687   -9.69920
       O   -16.20246   18.59215   -8.79585
      H1   -15.84239   19.19584   -8.17767
       H   -11.90074   14.37138   -8.77873
       O   -11.65184   14.56490   -7.83569
      H1   -11.50950   15.50539   -7.64875
       H   -16.84270   18.22365   -5.32315
       O   -16.02133   18.28822   -4.85281
      H1   -15.52777   17.65969   -5.33885
       H   -18.71902   17.40967   -9.84200
       O   -18.67035   16.43963   -9.72261
      H1   -17.85513   16.34944   -9.22643
       H   -15.04036   17.15781   -9.13620
       O   -14.57539   16.28308   -9.21612
      H1   -14.27636   16.20258  -10.15429
       H   -11.99843   16.62845  -15.65724
       O   -11.95217   17.00371  -14.75195
      H1   -12.84897   17.32872  -14.60912
       H    -7.75758   14.13821   -8.48812
       O    -7.97724   13.99997   -7.55290
      H1    -8.86317   13.69423   -7.54151
       H   -15.49111   11.42280   -7.45540
       O   -15.63360   12.21866   -6.94794
      H1   -14.83214   12.67684   -6.74556
       H   -10.42774   18.06054  -14.33282
       O    -9.51767   18.38282  -14.32290
      H1    -9.58797   19.28186  -13.95507
       H   -10.49483   20.11400  -11.69897
       O   -10.89793   19.85435  -10.87346
      H1   -10.86736   18.89756  -10.84416
       H   -10.11148   14.53373  -11.78306
       O   -10.12288   14.48722  -10.84060
      H1   -10.27661   15.44317  -10.52994
       H   -11.14603   10.62767   -5.81541
       O   -11.49693   10.21093   -5.03935
      H1   -10.70626   10.02032   -4.45448
       H    -8.02958   12.40525  -10.16277
       O    -8.49349   11.74817  -10.68703
      H1    -8.50972   11.02404  -10.09414
       H    -8.09599    9.45717   -3.89428
       O    -8.32690   10.14409   -4.52272
      H1    -7.82616    9.90082   -5.36492
       H   -10.52400   13.70683   -4.27920
       O    -9.80819   14.41323   -4.28822
      H1    -8.99537   13.95411   -4.51675
       H   -15.40857    9.00932   -8.70699
       O   -15.26819    9.93172   -8.81513
      H1   -15.72492   10.25787   -9.59709
       H   -15.75885   15.38466   -8.13680
       O   -16.48881   14.95213   -7.59177
      H1   -16.32930   13.97974   -7.46695

