168
frame 11 | Written by MDAnalysis XYZWriter (release 2.4.3)
       H    19.03330  -15.21064   -7.49783
       O    19.43669  -16.09390   -7.64828
      H1    18.87108  -16.38103   -8.35386
       H     8.24746  -17.27671   -5.32121
       O     7.72306  -18.08489   -5.39933
      H1     6.78069  -17.76008   -5.40255
       H    16.00598  -18.55894  -15.17133
       O    15.40833  -17.78808  -15.20977
      H1    15.14386  -17.54253  -14.30031
       H    10.21183  -13.22533   -2.66776
       O     9.77339  -12.35818   -2.62244
      H1    10.33150  -11.72243   -3.13507
       H    12.09503  -14.94430   -6.30308
       O    12.02230  -14.97356   -5.32340
      H1    12.79167  -14.48478   -5.04924
       H    13.17427  -18.31290   -5.87875
       O    12.30325  -18.75312   -5.89620
      H1    11.67546  -18.19267   -6.32425
       H     8.66095  -19.97488  -17.96801
       O     8.29819  -19.92692  -17.02128
      H1     8.56361  -19.08188  -16.70819
       H     9.12150  -16.34895   -1.78267
       O     8.67954  -17.03085   -1.18474
      H1     8.64171  -16.56397   -0.35402
       H     8.75510  -13.04681   -4.12700
       O     8.29555  -13.89637   -4.27874
      H1     8.38320  -14.15419   -5.23898
       H    10.35588  -18.09467   -1.54441
       O    11.19563  -18.54151   -1.60674
      H1    11.13008  -19.45542   -1.83659
       H     5.44646  -17.87226   -1.72956
       O     6.04312  -17.40500   -2.27691
      H1     6.78381  -17.15570   -1.74300
       H     6.42000  -17.95252   -9.85012
       O     6.09020  -17.01172   -9.97033
      H1     5.19696  -17.12736   -9.78555
       H     5.51419  -16.37603   -6.11003
       O     5.07767  -16.94727   -5.50397
      H1     4.76533  -16.34913   -4.77936
       H    14.98318  -17.07512   -6.46081
       O    14.86293  -17.97307   -6.10042
      H1    15.68241  -18.46584   -6.41955
       H    11.25793  -17.14397  -15.97633
       O    11.21260  -17.56295  -16.87713
      H1    11.40261  -18.53869  -16.81033
       H    14.69750  -18.79346   -0.68602
       O    14.68676  -17.81002   -0.78058
      H1    15.13363  -17.47623    0.05913
       H    12.82973  -13.34781   -0.65943
       O    12.19313  -13.50617   -1.41409
      H1    12.12301  -14.47410   -1.59537
       H    18.74298  -18.89643  -10.55649
       O    19.55484  -19.14857  -10.97295
      H1    19.74612  -20.09248  -10.78512
       H     5.20808  -13.42813   -9.02687
       O     5.72166  -12.99033   -8.34622
      H1     5.02776  -12.84100   -7.71799
       H     9.57945  -14.74551  -10.21476
       O     8.90122  -14.04494  -10.28861
      H1     8.20845  -14.38564  -10.90417
       H    19.32404  -17.03066   -6.18230
       O    19.11434  -17.68657   -5.39327
      H1    19.33186  -17.20386   -4.58877
       H     5.90172  -14.77553   -7.72515
       O     6.31052  -15.67998   -7.70729
      H1     6.28483  -16.12475   -8.57470
       H    13.02367  -17.26239  -17.59581
       O    13.92968  -17.00725  -17.46135
      H1    14.26771  -17.39866  -16.66358
       H    11.39156  -18.12546  -10.17588
       O    11.96293  -17.86237  -10.93162
      H1    12.37683  -17.06798  -10.60136
       H    12.17289  -10.50863   -9.87426
       O    12.67297  -11.26279   -9.50255
      H1    12.76221  -11.91322  -10.18636
       H     9.97816  -19.52033   -8.45414
       O    10.70712  -19.01545   -8.83002
      H1    11.55118  -19.44388   -8.59336
       H    10.58899  -17.14856   -8.21976
       O    10.89907  -16.40695   -7.66025
      H1    10.04684  -15.91755   -7.43680
       H    17.97565  -18.87861   -6.27367
       O    17.20651  -19.34387   -6.72277
      H1    17.35840  -20.20659   -6.29623
       H    14.20245  -18.31200  -12.39536
       O    14.24423  -17.38713  -12.73322
      H1    13.35976  -17.08028  -12.85850
       H     8.82027  -11.09259   -8.54496
       O     9.35096  -11.87002   -8.44132
      H1     8.87931  -12.56111   -9.01849
       H     3.71079  -19.17066  -12.12720
       O     3.12805  -18.40812  -12.10928
      H1     3.12588  -17.99980  -12.97386
       H    14.48911  -15.49443   -9.79540
       O    13.51990  -15.33335   -9.72272
      H1    13.39813  -14.61718   -9.07283
       H    15.28446  -15.88575   -3.63466
       O    14.95209  -15.08172   -3.19820
      H1    13.98647  -15.21335   -3.05645
       H    15.60374  -14.60702   -6.15085
       O    16.00289  -15.27687   -6.71765
      H1    16.77417  -14.77384   -7.10157
       H     7.56621  -15.80519  -12.55598
       O     6.95973  -15.24528  -12.03426
      H1     6.71203  -15.76922  -11.27277
       H     3.82860  -18.48616   -8.97849
       O     4.24013  -19.24209   -8.51722
      H1     4.24241  -19.13125   -7.52681
       H     3.05975  -17.32215  -10.61999
       O     3.46463  -17.19625   -9.75228
      H1     2.85525  -16.63788   -9.19736
       H    13.52888  -14.18729  -11.04702
       O    13.56499  -13.28831  -11.36947
      H1    14.19004  -13.34724  -12.09105
       H    10.06110  -16.25815   -4.94115
       O     9.61272  -16.30947   -4.10477
      H1     9.03530  -15.55812   -4.09168
       H    15.04507  -12.46593   -5.16241
       O    14.54286  -13.33513   -5.16273
      H1    14.80867  -13.83469   -4.38255
       H    11.26295  -16.17934   -3.19137
       O    11.89982  -16.01603   -2.49411
      H1    11.91676  -16.92823   -2.10016
       H     9.81747  -13.03333  -11.57496
       O    10.14196  -12.19650  -11.96197
      H1    10.82594  -12.41436  -12.60914
       H    10.37545  -12.94211  -14.40097
       O    11.24958  -13.30950  -14.30313
      H1    11.82603  -12.53972  -14.35504
       H    15.41604  -16.19049  -11.53250
       O    15.90927  -15.81168  -10.76040
      H1    16.27545  -16.53604  -10.24383
       H     9.05980  -17.29360  -16.77127
       O     8.46537  -17.45074  -16.05498
      H1     7.62715  -17.30242  -16.54261
       H    10.46424  -18.57241  -12.18086
       O     9.61190  -18.88047  -12.45209
      H1     9.84907  -19.32800  -13.30197
       H    10.36602  -16.45886  -14.11877
       O    11.19819  -16.19952  -14.59234
      H1    11.08735  -15.24722  -14.81860
       H     5.99070  -14.06206  -14.79381
       O     6.31699  -13.54529  -14.04877
      H1     6.54805  -14.22746  -13.32397
       H    19.80036  -18.87667  -14.10930
       O    18.96443  -18.64816  -13.62679
      H1    19.11917  -19.05071  -12.78121
       H    16.47236  -15.51603  -14.59897
       O    15.98405  -14.79050  -14.15338
      H1    15.26044  -14.72677  -14.80217
       H    15.44655  -17.86769   -4.46574
       O    16.04462  -17.78883   -3.69445
      H1    15.45305  -17.88264   -2.88036
       H     7.81861  -15.15534   -7.16513
       O     8.65631  -14.85990   -6.78216
      H1     8.86716  -13.95175   -7.08759
       H     3.79177  -19.74883   -5.10650
       O     3.92040  -19.24858   -5.91129
      H1     4.40681  -18.49782   -5.61330
       H    17.13214  -18.80718   -8.94000
       O    17.12834  -18.30682   -9.76402
      H1    16.35084  -18.64664  -10.17369
       H    17.46381  -15.96329  -12.03730
       O    18.35750  -16.26764  -12.33566
      H1    18.31189  -17.22979  -12.48102
       H     8.78533  -17.50869  -13.13337
       O     8.74201  -16.64835  -13.50219
      H1     8.46566  -16.72422  -14.47491

