168
frame 5 | Written by MDAnalysis XYZWriter (release 2.4.3)
       H    -3.62217    2.82625   -2.27314
       O    -3.74615    2.19053   -3.01351
      H1    -4.68560    2.02280   -3.03168
       H    -7.92714    5.09828   -6.33142
       O    -7.43200    4.28013   -6.10934
      H1    -8.01078    3.68879   -5.51841
       H   -11.40687    7.04751   -5.20397
       O   -10.38917    6.88595   -5.33872
      H1    -9.83587    6.91913   -4.50896
       H    -7.10996    6.36043   -8.22348
       O    -7.90278    6.45782   -7.62976
      H1    -8.58875    6.00232   -8.13767
       H   -13.98691    2.21059   -6.55262
       O   -13.32633    1.53278   -6.39722
      H1   -12.54872    1.80479   -6.91636
       H    -4.89546   -2.59345   -7.66553
       O    -4.22403   -1.85191   -7.70741
      H1    -4.38873   -1.42848   -8.57811
       H   -10.48487    4.66735   -7.87767
       O   -10.15196    5.18329   -8.63005
      H1    -9.83009    4.50133   -9.21518
       H    -7.41444    2.04427   -3.64685
       O    -6.63643    2.20188   -3.08175
      H1    -6.74984    1.49156   -2.38591
       H   -11.73925    3.85116   -5.69181
       O   -11.01330    4.29629   -6.13189
      H1   -10.91789    5.17263   -5.72200
       H   -12.85569    3.59415   -0.93090
       O   -12.58334    4.10938   -1.69502
      H1   -12.99538    4.96511   -1.52790
       H    -4.24312   -0.51539   -6.35484
       O    -4.41495    0.15820   -5.68349
      H1    -3.48663    0.48573   -5.48846
       H    -9.83939   -1.77681   -9.00685
       O    -8.98921   -2.09876   -9.21502
      H1    -8.55077   -1.26275   -9.31214
       H   -12.93861    7.47324   -1.97588
       O   -12.54806    6.65551   -2.42170
      H1   -11.61322    6.71467   -2.08505
       H    -4.25207   -2.20022   -3.63788
       O    -3.45883   -2.48627   -3.19999
      H1    -2.73231   -2.19125   -3.72928
       H    -8.17403    1.32722   -5.75319
       O    -8.56227    1.71497   -4.92917
      H1    -9.51439    1.82102   -5.05712
       H    -4.73673    7.47416   -5.23309
       O    -4.95327    8.39590   -5.11048
      H1    -5.66096    8.59075   -5.76348
       H    -6.47962    4.75683    1.29692
       O    -6.85298    4.36926    0.51014
      H1    -7.42711    3.64785    0.83529
       H    -4.43871    5.90380   -3.40418
       O    -4.28630    6.07730   -2.47204
      H1    -4.45734    5.24400   -2.01672
       H    -7.83878   -4.55016   -4.56804
       O    -7.76001   -3.91642   -5.32122
      H1    -7.06435   -4.16222   -5.92333
       H   -11.36727    1.50388    2.41088
       O   -11.57579    1.94237    1.53606
      H1   -11.06571    1.36179    0.94245
       H    -6.97762    1.44838   -7.20575
       O    -6.96254    0.50950   -6.87131
      H1    -6.17224    0.45375   -6.32906
       H    -2.64440    5.50171   -2.04458
       O    -1.85483    4.98367   -2.30309
      H1    -1.60999    4.43983   -1.51944
       H    -7.10347    3.29055   -9.06341
       O    -6.92353    2.84618   -8.21208
      H1    -7.19109    3.39149   -7.49518
       H    -4.58088    2.67843    0.88569
       O    -4.74959    2.24967    1.67157
      H1    -5.05113    1.39537    1.48131
       H    -1.35945   -0.13044   -5.08743
       O    -1.50195    0.77491   -5.41824
      H1    -1.27805    1.29806   -4.65476
       H   -12.93153   -1.53740   -5.30840
       O   -13.11597   -1.29279   -6.22236
      H1   -13.10373   -0.31566   -6.13670
       H    -7.05349    3.07304    3.55743
       O    -7.23627    2.53948    2.75203
      H1    -6.36082    2.44963    2.27318
       H    -9.63935    3.12167  -11.23644
       O    -9.21233    3.16036  -10.36216
      H1    -9.93151    2.80545   -9.76288
       H    -5.32276    5.29736   -5.50867
       O    -4.45452    5.66453   -5.21291
      H1    -3.94212    4.89221   -5.31757
       H    -5.26496   -0.23091    0.01258
       O    -5.63475   -0.37090    0.94963
      H1    -6.37312   -0.94531    0.86548
       H    -6.23932   -0.89157   -2.91895
       O    -6.57279   -0.42533   -2.16584
      H1    -6.89422   -1.15413   -1.61645
       H   -11.13807    0.39392   -1.64247
       O   -11.79894    0.37427   -2.35475
      H1   -11.71230    1.18520   -2.86564
       H    -1.18059    2.08541   -1.99471
       O    -0.63113    1.86317   -2.76242
      H1     0.16003    2.35482   -2.51364
       H   -10.00733   -0.66441   -6.33488
       O   -10.53254   -0.64241   -7.10184
      H1   -11.43491   -0.89866   -6.88727
       H   -10.71358    4.73660    2.25671
       O   -10.92621    4.68577    1.28414
      H1   -11.19659    3.74742    1.27701
       H    -5.71522   -1.44325   -5.01349
       O    -5.93455   -2.21665   -4.42854
      H1    -6.62638   -2.73443   -4.80779
       H    -8.04228   -2.49505   -0.09563
       O    -8.23665   -1.70842    0.35060
      H1    -8.58078   -2.04142    1.19011
       H    -7.62697    4.58884   -1.26321
       O    -8.09439    4.27876   -2.04153
      H1    -7.50989    3.65370   -2.47375
       H    -4.69571    6.39595   -9.11828
       O    -5.50636    5.87078   -8.84342
      H1    -5.30755    5.02981   -8.40301
       H    -9.13541   -3.79661   -6.33067
       O    -9.80468   -4.11032   -6.96590
      H1    -9.38369   -3.89094   -7.84174
       H   -12.70528    2.46108   -4.47372
       O   -11.88075    2.53842   -4.05765
      H1   -12.05625    3.29434   -3.41937
       H   -12.49630   -1.05898   -3.10019
       O   -12.93096   -1.77138   -3.59409
      H1   -12.71507   -2.53211   -3.13195
       H    -6.28350    0.08811   -8.51459
       O    -5.69280    0.01889   -9.29514
      H1    -6.15140   -0.52700   -9.98242
       H    -2.65004    0.66062    0.07366
       O    -2.33879    1.18281    0.86860
      H1    -3.12614    1.33016    1.39914
       H    -5.42326    4.03065   -0.52166
       O    -4.46469    3.90421   -0.71190
      H1    -4.05408    4.54466   -0.10890
       H    -7.42479   -3.69205   -2.68146
       O    -7.59615   -3.52599   -1.77976
      H1    -7.82634   -4.38631   -1.42836
       H    -3.61542    3.92334   -8.28626
       O    -4.27964    3.52606   -7.73436
      H1    -5.03447    3.41287   -8.33186
       H    -6.96735    7.69016   -2.29812
       O    -6.29957    8.08281   -1.71977
      H1    -5.52958    7.51061   -1.77289
       H   -11.71041    1.93533   -8.62997
       O   -10.97559    2.02084   -7.99405
      H1   -10.62951    1.10926   -7.83945
       H    -9.98135    5.76455   -0.30224
       O    -9.61572    6.61331   -0.53957
      H1    -8.98680    6.91184    0.14190
       H    -8.39467    6.03879   -3.03286
       O    -8.52648    7.05619   -3.14969
      H1    -8.94601    7.21734   -2.28351
       H    -2.66352    2.95955   -4.22656
       O    -2.24232    3.67280   -4.74370
      H1    -1.76185    4.23732   -4.14157
       H    -3.53987   -1.25799   -1.35466
       O    -3.51172   -0.28829   -1.07539
      H1    -3.42477    0.21665   -1.89519
       H    -9.66567    3.72943    0.56402
       O    -9.14155    3.05813    0.03513
      H1    -8.72084    3.51874   -0.75870
       H    -1.85000    0.93257   -7.44700
       O    -1.94139    1.19414   -8.39076
      H1    -2.84745    1.53781   -8.43364
       H    -9.39045   -0.35357   -0.03748
       O    -9.97770    0.38546   -0.12900
      H1    -9.40063    1.16175   -0.06179

