168
frame 5 | Written by MDAnalysis XYZWriter (release 2.4.3)
       H    16.32529    9.53190   -6.63553
       O    15.85490   10.24099   -7.11138
      H1    15.20391   10.58757   -6.49094
       H     2.54982   10.51215   -2.13929
       O     2.78846    9.81373   -2.72428
      H1     2.66767    8.96293   -2.31907
       H     6.11899   12.35548   -1.83505
       O     5.36034   11.75896   -2.04058
      H1     5.34387   11.56890   -2.99174
       H    12.34157    5.67531   -7.02482
       O    12.04862    4.79823   -6.74369
      H1    12.03195    4.88217   -5.79705
       H    12.97987   12.01289   -4.77773
       O    13.35867   12.70969   -4.23171
      H1    12.73803   13.15851   -3.62752
       H    13.13614    8.94273    1.75348
       O    12.93732    8.32525    1.06240
      H1    13.49840    8.39329    0.29943
       H     8.05646   10.15336    3.30098
       O     8.86716   10.12746    2.77697
      H1     9.14521   11.08355    2.76798
       H     7.91586   13.24465   -8.43115
       O     8.58496   13.45756   -7.78687
      H1     8.56566   12.66922   -7.16285
       H     8.66829   10.50265   -6.38943
       O     8.38719   11.34531   -5.98532
      H1     7.45442   11.21177   -5.84214
       H    16.45510   11.11752   -3.90003
       O    15.72201   10.54936   -4.21917
      H1    14.94038   10.60515   -3.63050
       H    11.01569    7.58792   -2.52072
       O    11.06513    7.57249   -1.56318
      H1    10.32885    6.94863   -1.33380
       H    10.28302    3.16893   -1.71609
       O    10.38738    4.11539   -2.00828
      H1    11.29407    4.19296   -2.25648
       H     9.54921   10.56734   -3.11148
       O     8.61807   10.51649   -3.46578
      H1     8.66878   11.06153   -4.24044
       H     8.56931   10.61854    0.94588
       O     8.48353   10.91423    0.03869
      H1     9.33976   11.39415   -0.15448
       H     7.40184   17.23651   -2.18438
       O     6.73181   16.60550   -2.41610
      H1     6.79094   15.91297   -1.64256
       H    11.14186   10.88584   -1.20526
       O    11.10520   10.19853   -1.88759
      H1    11.01465    9.33968   -1.41952
       H     7.57944   16.79172    0.55121
       O     7.87060   15.95755    0.12540
      H1     8.79467   15.93510    0.33893
       H     9.64338    8.66808   -8.36760
       O    10.09753    9.03217   -9.16312
      H1    10.38470    8.16981   -9.58804
       H     6.52175    9.04160   -1.02586
       O     5.64360    9.02484   -1.39304
      H1     5.61205    9.96599   -1.64544
       H    12.72027   12.08004   -7.45278
       O    11.95621   12.01784   -8.05115
      H1    11.58340   12.90062   -8.01792
       H     7.74104    7.02639   -1.25924
       O     8.51954    6.73086   -0.73613
      H1     8.12559    6.03837   -0.14620
       H    10.15124   14.32502   -7.59841
       O    11.02916   14.67517   -7.64209
      H1    11.36537   15.09373   -6.80417
       H     4.43266   11.45803   -4.62022
       O     4.80364   10.57886   -4.44640
      H1     4.07176   10.14499   -3.92806
       H    12.79346   15.13885   -1.64881
       O    12.56120   14.32901   -2.16018
      H1    11.64311   14.41249   -2.39947
       H     9.04689    8.13346   -5.62933
       O     8.73954    8.48802   -6.48583
      H1     7.79055    8.56928   -6.32176
       H     5.85812   14.10258   -4.12630
       O     6.68247   14.40429   -4.58095
      H1     6.83640   15.31189   -4.23637
       H    11.84607    6.06038   -3.30354
       O    12.27534    5.81742   -4.12300
      H1    12.58855    6.63387   -4.52140
       H    10.37941   16.44929   -1.85036
       O    10.79960   17.02426   -1.20685
      H1    10.13310   17.78983   -1.08128
       H     9.00522    5.50287   -6.38563
       O     9.38491    4.92083   -7.04982
      H1    10.31067    4.77868   -6.83023
       H     9.66287   15.14421   -3.53086
       O     9.88717   14.72070   -2.72058
      H1     9.16236   14.16268   -2.39407
       H     5.55199    9.69910   -7.77658
       O     5.67471   10.62101   -7.57756
      H1     4.77844   10.77923   -7.23754
       H     8.05922   11.91811   -1.84461
       O     7.82642   12.86764   -1.69545
      H1     8.04747   13.00585   -0.72123
       H    14.44272   13.94728   -5.29399
       O    14.88549   14.65240   -5.78076
      H1    15.03494   14.29566   -6.68422
       H    12.25764   10.51912   -6.31363
       O    13.12789   10.78211   -6.00927
      H1    13.53055   10.08650   -5.48955
       H     9.18721   15.91166   -5.67181
       O     9.81330   16.14988   -4.98762
      H1     9.68900   17.09591   -4.84753
       H     3.33732   14.03532   -3.53847
       O     3.74739   13.41070   -4.20683
      H1     3.09576   13.38922   -4.91363
       H     5.40724    7.92718   -5.83336
       O     6.15335    8.20259   -5.32399
      H1     5.83204    9.10820   -4.93086
       H     5.76888   14.15752   -6.67370
       O     5.04816   13.82662   -7.26493
      H1     5.61519   13.37449   -7.96580
       H     4.35048    5.54106   -1.29244
       O     4.91137    5.16341   -1.95336
      H1     5.59622    5.83137   -2.18860
       H     6.17935    7.58983   -2.30379
       O     6.64361    7.07952   -2.95440
      H1     6.38727    7.46802   -3.82400
       H     9.51026    6.88456    1.88752
       O    10.45741    6.78776    2.06325
      H1    11.11076    7.29698    1.61610
       H    11.72774   12.61855    0.51838
       O    11.30907   12.74089   -0.37940
      H1    11.92683   13.28714   -0.91018
       H    15.48357    7.65540   -0.60100
       O    14.64308    7.90207   -1.01970
      H1    14.15595    7.05950   -1.15902
       H    12.80037   10.16178   -2.28790
       O    13.77836   10.13334   -2.34873
      H1    14.06374    9.30757   -1.94778
       H     8.61135   13.54356    1.91497
       O     7.73942   13.68631    1.53789
      H1     7.78727   14.48103    0.99868
       H    14.30173    7.71588   -4.59588
       O    13.57026    8.36382   -4.73274
      H1    13.68439    8.99475   -3.97282
       H     4.12517   14.18282   -0.21211
       O     4.08185   13.89624   -1.13887
      H1     4.59649   13.08416   -1.26227
       H    13.55235    7.90099   -7.38914
       O    13.56400    6.97804   -7.57842
      H1    14.50901    6.72255   -7.53302
       H    14.89813   13.32815   -2.02471
       O    15.22404   12.55128   -1.65517
      H1    14.66793   11.82959   -1.96011
       H    10.64840   16.15495    0.63309
       O    10.30687   15.83462    1.48197
      H1    10.63265   14.91036    1.61201
       H    12.78238   13.62967    2.18152
       O    12.43303   12.75016    2.09494
      H1    12.76585   12.12353    2.76132
       H     9.20240    6.86327   -3.96434
       O     9.64849    7.73307   -4.09267
      H1     9.12194    8.29221   -3.54763
       H     9.96136   13.04094    3.77641
       O     9.97527   12.75887    2.86111
      H1    10.92485   12.67027    2.60512
       H     9.16706    4.54423   -3.27940
       O     8.66006    5.04003   -3.90895
      H1     7.94183    5.43122   -3.43577
       H    13.25932   15.82111   -5.63690
       O    12.56641   16.44514   -5.81022
      H1    12.21214   16.56349   -4.91485
       H     6.20378   12.68267    2.17580
       O     5.36770   12.36374    2.54912
      H1     4.87825   12.04435    1.80605

