168
frame 8 | Written by MDAnalysis XYZWriter (release 2.4.3)
       H   -14.44420   15.02578    3.69250
       O   -14.03667   14.93784    4.55747
      H1   -14.41645   15.63772    5.15503
       H   -12.02441   10.63675    3.64991
       O   -12.67313   11.11823    4.19485
      H1   -13.17363   11.70859    3.55867
       H   -16.28317   14.09055    2.69707
       O   -16.48071   13.27773    3.19352
      H1   -15.65329   12.87651    3.15313
       H   -16.58040    6.86535   10.16984
       O   -16.59763    7.32479   11.06278
      H1   -17.49911    7.76049   11.24841
       H   -16.63646   11.27779   11.83985
       O   -16.52724   10.32122   12.03921
      H1   -17.35457   10.12887   12.46456
       H   -18.27054   11.36103    6.14994
       O   -18.06949   10.99036    7.05561
      H1   -17.96274   11.69762    7.71844
       H   -13.05699    9.60741    7.02483
       O   -12.32158    9.37062    7.59927
      H1   -12.40688    8.48397    7.86768
       H   -14.03447   13.00690   17.09703
       O   -14.12275   12.40555   16.34568
      H1   -13.26190   12.33851   15.95543
       H   -14.85472    8.42392   10.58192
       O   -14.66543    9.28623   10.25650
      H1   -15.33893    9.81207   10.76857
       H   -18.03917   18.77554    5.57694
       O   -18.15858   19.73598    5.71132
      H1   -18.16121   19.74685    6.68306
       H   -15.16010   13.71503   15.18558
       O   -15.74681   14.49893   15.08779
      H1   -15.83403   14.99801   15.90837
       H   -18.23407   15.42761    2.86795
       O   -19.08669   15.85911    2.88683
      H1   -19.67436   15.17455    3.28365
       H   -16.02560    9.60621    8.86649
       O   -16.49240    9.16697    8.15513
      H1   -17.09716    9.75652    7.60599
       H    -9.90160   16.31060   12.72829
       O    -9.85052   15.34868   12.54293
      H1   -10.72988   15.05543   12.75739
       H   -12.88183   16.61006   10.06470
       O   -13.63636   17.21737    9.96286
      H1   -13.73218   17.59949   10.87364
       H   -13.33374   18.46704    3.26585
       O   -13.99048   18.63305    3.97424
      H1   -14.21228   17.86055    4.47814
       H   -17.07846   16.74067    8.96102
       O   -17.73701   17.41168    9.00188
      H1   -18.60068   17.02235    8.66979
       H   -11.11802    9.65128    6.06957
       O   -10.35455    9.26519    5.63923
      H1   -10.48316    9.52899    4.71217
       H   -19.21934   16.86904    1.21796
       O   -18.86185   17.59504    0.68644
      H1   -19.61330   18.08286    0.29279
       H   -17.03946   17.37325    4.48947
       O   -17.75335   17.21508    5.09360
      H1   -18.37278   16.79178    4.50885
       H   -13.84295   14.78380   12.96116
       O   -14.65215   15.21089   12.76996
      H1   -15.20538   14.96876   13.56458
       H   -13.60678    8.67404   14.71009
       O   -12.83338    8.42491   15.24327
      H1   -13.11483    8.46053   16.16870
       H   -13.02485   13.22033    2.22005
       O   -13.86737   12.73373    2.29162
      H1   -14.03912   12.48438    1.33903
       H   -16.82428   10.95225   14.94969
       O   -17.60625   11.44715   15.27085
      H1   -17.68686   11.33636   16.22448
       H   -14.33459   17.40104    6.69160
       O   -14.87350   17.04615    6.00204
      H1   -15.77817   17.28733    6.26453
       H   -19.95538    9.89439    2.26483
       O   -19.87987    9.79903    3.21180
      H1   -19.18646    9.11473    3.36640
       H   -14.12944   10.86803   14.14896
       O   -14.73450   10.17513   14.04249
      H1   -15.16780   10.29235   13.18236
       H   -18.01560   12.89763   12.46304
       O   -18.71252   12.38317   12.94130
      H1   -18.49481   12.29521   13.89180
       H   -14.18675   16.98382   12.69446
       O   -14.21499   17.93145   12.47317
      H1   -13.68071   18.32898   13.17440
       H   -12.12663   12.96595   13.03342
       O   -12.13535   13.84840   12.58879
      H1   -11.85503   13.64721   11.63407
       H   -18.22438    7.25065    4.04187
       O   -18.20896    7.91068    4.77938
      H1   -17.25776    8.03486    4.85766
       H   -15.05867    7.29409   12.55748
       O   -14.56485    6.85477   13.25817
      H1   -13.80110    6.39107   12.83974
       H   -11.92751   14.19819    9.04370
       O   -11.31145   14.37432    9.75079
      H1   -10.63836   13.65066    9.54529
       H   -16.07465   16.98058    2.18306
       O   -15.96354   15.99595    2.25010
      H1   -15.67587   15.73864    1.34624
       H   -17.98944   12.30129    4.08120
       O   -18.62492   11.90690    4.67187
      H1   -18.89344   11.11082    4.14363
       H   -18.94361   15.35741   17.64041
       O   -18.63497   16.18279   17.96781
      H1   -19.35616   16.59340   18.51278
       H   -11.80346   12.58531    5.54569
       O   -11.07913   13.07720    5.86472
      H1   -10.42029   12.43459    6.15411
       H   -18.58693   13.30381    9.21604
       O   -17.86019   13.22171    8.56132
      H1   -18.15187   13.78044    7.81437
       H   -15.70052   18.88139   13.40897
       O   -16.38189   19.56229   13.52038
      H1   -16.32506   20.30332   12.88609
       H   -12.96624   17.48989    8.35074
       O   -12.91962   17.91520    7.48830
      H1   -12.38152   17.29313    6.96084
       H   -19.48102    7.53485   12.19436
       O   -18.92738    8.29225   12.21307
      H1   -19.22605    8.72417   13.00024
       H   -17.01850    7.46876    8.20972
       O   -17.18426    6.54382    8.03065
      H1   -18.17798    6.48853    7.83942
       H   -15.49496   14.04150   11.72799
       O   -16.30456   13.49170   11.43460
      H1   -16.38860   13.71894   10.49788
       H   -17.81022   15.54972   14.27283
       O   -18.31745   16.31503   14.11230
      H1   -17.80787   16.78501   13.52417
       H   -12.18409    8.71997   10.67283
       O   -11.71931    8.05375   10.09781
      H1   -10.86336    7.93736   10.58545
       H   -14.65324   13.48673    5.59473
       O   -15.22629   12.93415    6.17097
      H1   -15.03095   11.99409    6.02295
       H   -14.40568    6.75287    4.84960
       O   -15.19348    7.31563    4.76257
      H1   -15.04451    7.77469    3.93399
       H   -14.81062    9.02415    5.53231
       O   -14.52145    9.92192    5.72453
      H1   -13.86968   10.17898    5.03286
       H   -15.26797   15.84313    8.40586
       O   -15.69413   15.62635    9.25723
      H1   -15.17019   16.06276    9.95069
       H   -10.81387   15.86242    6.25265
       O   -11.45924   16.26845    5.71618
      H1   -11.85518   15.46010    5.28284
       H   -18.14470   15.31662    6.08829
       O   -18.77772   14.75695    6.54497
      H1   -19.24475   15.37884    7.07308
       H    -9.33053   11.31618   10.21260
       O    -9.95545   11.98148    9.79371
      H1   -10.80752   11.60227    9.93979
       H   -17.58556   17.58930   10.72535
       O   -17.07875   17.42559   11.57071
      H1   -16.78793   18.31621   11.86934
       H   -18.81444   10.42959   10.04616
       O   -19.62433    9.98540   10.15981
      H1   -19.48181    9.42623   10.95665
       H   -13.04229   12.29692    9.95728
       O   -12.74518   11.52197   10.42331
      H1   -13.08491   10.81937    9.81357
       H   -14.48594   14.02850    8.88197
       O   -13.74404   13.57602    8.51039
      H1   -14.09740   13.22735    7.67173

