168
frame 6 | Written by MDAnalysis XYZWriter (release 2.4.3)
       H   -14.31149  -12.07863   10.11129
       O   -14.13444  -12.53047    9.33502
      H1   -14.48881  -11.98846    8.61331
       H    -7.26195   -9.77052    2.04288
       O    -7.78704  -10.05802    1.26465
      H1    -8.07215   -9.30704    0.80348
       H   -15.83075  -12.65863   -0.08655
       O   -16.26523  -12.74381   -0.92901
      H1   -16.77063  -13.52977   -0.78224
       H   -20.22060  -13.47985    0.22211
       O   -19.43733  -13.05395   -0.10622
      H1   -19.03518  -12.67283    0.67866
       H   -16.76768   -6.89845   -1.19030
       O   -15.83097   -6.63551   -1.26069
      H1   -15.61022   -6.87303   -2.21467
       H   -14.94047   -9.28427    0.96489
       O   -15.69498   -8.77464    0.72433
      H1   -15.37031   -8.22264   -0.08130
       H   -13.46737   -8.10664    8.62626
       O   -14.01490   -8.67570    9.17210
      H1   -14.84212   -8.24797    9.27349
       H   -17.65586  -13.05315    2.79960
       O   -18.07995  -12.21960    2.39394
      H1   -17.50023  -11.43368    2.54676
       H    -8.34190  -12.98522    6.55952
       O    -8.22556  -12.57547    5.68922
      H1    -9.00035  -12.90247    5.16883
       H    -9.28777  -10.24150    2.67529
       O   -10.10086  -10.05059    3.16782
      H1   -10.66554  -10.83566    3.08398
       H   -10.37737   -5.28840    3.16371
       O   -10.32042   -4.91556    4.09853
      H1    -9.40077   -4.78073    4.38204
       H   -16.96800   -9.16675    8.33496
       O   -17.01830   -9.35461    7.38892
      H1   -17.88164   -9.58070    7.13201
       H   -17.64986  -14.99518    4.03656
       O   -17.20895  -14.57491    3.23722
      H1   -16.61738  -13.99056    3.68217
       H    -9.97925  -14.38047    4.21352
       O    -9.85256  -13.53768    3.75368
      H1    -9.29863  -13.64039    3.00557
       H    -9.89574  -13.35558   -1.07391
       O    -9.20858  -12.75992   -1.20423
      H1    -9.67428  -11.89810   -1.45663
       H   -10.24093  -14.42352    7.82398
       O    -9.75229  -15.23124    7.94033
      H1   -10.33866  -15.89936    8.27511
       H   -18.42289   -8.44582   -1.16608
       O   -18.81544   -7.52756   -1.05742
      H1   -19.01097   -7.41756   -0.10675
       H    -8.19851   -6.25122    0.32682
       O    -8.43242   -5.35588    0.53926
      H1    -7.97222   -5.07966    1.34128
       H   -14.51999   -3.96671    2.73767
       O   -15.22416   -3.75026    2.05782
      H1   -15.24281   -4.41664    1.33474
       H   -18.04590  -13.46979    6.58033
       O   -17.60753  -12.56594    6.43361
      H1   -17.59036  -12.22580    7.29678
       H   -12.44921  -11.81468    4.14146
       O   -12.26659  -12.02697    3.23100
      H1   -11.39380  -12.50512    3.23661
       H   -14.98993  -13.94967    1.81514
       O   -14.42693  -13.21922    1.38155
      H1   -13.64089  -13.12479    1.92124
       H   -12.15204  -16.09846    1.85706
       O   -11.48819  -16.57198    1.36344
      H1   -11.19215  -15.98464    0.67057
       H    -9.87287  -16.64852    5.04099
       O    -9.61602  -15.75290    5.26763
      H1    -9.70396  -15.59834    6.20643
       H   -17.22262   -9.16645    3.53155
       O   -17.26449   -9.63378    2.69345
      H1   -16.56857   -9.26053    2.13092
       H   -12.03495  -11.92681    6.32721
       O   -12.18620  -11.09190    5.84163
      H1   -11.28165  -10.66811    5.89859
       H   -15.27415   -9.57525   -3.98249
       O   -14.85984   -9.02009   -4.63648
      H1   -15.47175   -9.08807   -5.42722
       H   -12.37827   -4.68617    4.33957
       O   -13.26681   -4.37544    4.05242
      H1   -13.87537   -4.83191    4.67284
       H    -8.76182  -10.62396    5.74741
       O    -9.42430   -9.89455    5.91218
      H1    -9.81173   -9.63593    5.03364
       H    -8.80513   -7.63799   -1.41276
       O    -8.11376   -7.65538   -0.64629
      H1    -7.29567   -7.52452   -1.12073
       H   -18.84773   -9.24491    1.89663
       O   -19.30764   -8.52584    1.47282
      H1   -19.81502   -8.88258    0.78664
       H   -11.11205   -6.27417    5.09613
       O   -11.76487   -6.97837    5.14572
      H1   -11.61857   -7.28133    4.24638
       H   -16.94271  -10.06228   -1.23421
       O   -17.57808   -9.74173   -1.87835
      H1   -18.30961  -10.37960   -1.91087
       H   -13.59848   -9.21259    2.82917
       O   -14.10130  -10.00262    2.74006
      H1   -13.39855  -10.64701    2.51736
       H   -11.91630   -6.48496    8.08695
       O   -12.69909   -6.75984    7.60796
      H1   -12.44027   -6.95136    6.64673
       H   -13.47875  -10.29702   -4.83094
       O   -12.91517  -11.03090   -4.44024
      H1   -13.56766  -11.60920   -4.09003
       H   -11.71267   -5.90873    0.64758
       O   -11.12990   -5.43073    1.26075
      H1   -10.30316   -5.26558    0.78865
       H   -15.76122  -12.11524   -3.67606
       O   -14.94610  -12.69552   -3.49601
      H1   -15.06914  -12.91369   -2.56313
       H   -15.02885  -11.59642    4.14235
       O   -15.30747  -12.33441    4.68735
      H1   -15.63037  -11.95130    5.55064
       H   -14.56343  -16.58198    7.32955
       O   -15.06958  -15.83921    6.94292
      H1   -15.58720  -15.53131    7.72689
       H    -7.90980  -12.44000    1.64164
       O    -8.42162  -13.21378    1.41247
      H1    -8.74769  -12.90048    0.58495
       H   -10.94796   -8.78029    2.60379
       O   -11.67917   -8.19397    2.52349
      H1   -11.69840   -7.72497    1.66534
       H   -11.94404  -13.74121   -1.81829
       O   -11.69901  -14.23055   -1.03305
      H1   -12.44422  -14.14414   -0.49150
       H   -17.11550   -5.81680    1.62996
       O   -16.42752   -6.39704    1.88591
      H1   -16.55515   -7.27351    1.53846
       H   -11.98311  -13.13978    8.18738
       O   -11.47447  -13.27492    7.35362
      H1   -12.10062  -13.62544    6.72617
       H   -15.44077  -10.46241    7.11950
       O   -14.82409  -11.21594    7.06284
      H1   -13.99548  -10.82560    6.68633
       H   -14.06554  -13.43091    5.35829
       O   -13.46054  -14.13845    5.65825
      H1   -14.10050  -14.67179    6.20907
       H    -5.96865  -10.25636    3.63718
       O    -6.40793   -9.45887    3.42684
      H1    -5.76817   -8.75844    3.27845
       H    -8.02906   -7.63638    7.97307
       O    -8.15273   -7.68880    7.03419
      H1    -8.55704   -8.56055    6.90740
       H   -14.08900  -15.80480    3.05664
       O   -13.21387  -15.39021    3.26902
      H1   -13.42055  -14.95013    4.09400
       H   -15.96881   -6.33749    5.20122
       O   -16.74866   -6.59419    4.66484
      H1   -16.43777   -6.75706    3.75294
       H   -14.10404   -6.05232    6.72869
       O   -14.77863   -5.57648    6.11102
      H1   -14.82272   -4.76925    6.61828
       H   -18.55853   -6.75632    5.74419
       O   -19.46935   -6.55559    5.58651
      H1   -19.57290   -6.38039    4.64237
       H   -10.36390   -9.56255   -2.62114
       O   -10.98355  -10.08351   -2.09491
      H1   -11.80421  -10.13117   -2.63729
       H   -12.90200  -14.08425   -4.31924
       O   -12.14901  -13.97857   -3.68894
      H1   -12.26391  -14.77794   -3.16809
       H   -12.81384   -6.74331   -1.35529
       O   -12.27266   -7.13413   -0.67414
      H1   -11.65684   -7.72709   -1.12230

