168
frame 2 | Written by MDAnalysis XYZWriter (release 2.4.3)
       H    -3.06259    3.13900   -2.93885
       O    -3.70487    2.47524   -2.59544
      H1    -4.18993    2.81040   -1.80887
       H    -6.51341    5.89477   -5.26637
       O    -5.99092    5.12143   -5.30793
      H1    -6.47469    4.44911   -4.76397
       H    -1.21098   15.31251   -2.61605
       O    -1.88382   15.18381   -1.93549
      H1    -2.41604   15.99540   -1.93207
       H     1.26357   10.23668   -2.06300
       O     1.70408    9.37291   -2.22049
      H1     2.29088    9.32153   -1.48350
       H    -1.83378    5.34218    0.62231
       O    -1.64328    4.57221    0.07844
      H1    -1.51563    3.79513    0.61037
       H     0.98800    4.24092    3.22869
       O     0.96290    5.14567    3.49591
      H1     1.05773    5.74011    2.71278
       H     2.20365    8.53652   -4.00894
       O     1.88801    8.15372   -4.82170
      H1     1.13095    8.69858   -5.06709
       H    -0.97703    4.61070   -8.11133
       O    -0.44475    5.36313   -7.84656
      H1    -0.27755    5.97339   -8.64178
       H    -3.54753    9.60931    0.29694
       O    -3.83725    8.69815    0.12183
      H1    -4.01607    8.70549   -0.83511
       H    -2.53101    7.41947   -6.84464
       O    -2.74735    8.34104   -6.77568
      H1    -3.48064    8.56512   -7.36749
       H    -3.40662    9.21955   -5.22574
       O    -3.70137    9.90021   -4.65586
      H1    -4.25112    9.36466   -4.04640
       H     4.48532    6.46203   -5.15480
       O     4.52490    6.95470   -6.00517
      H1     3.57925    6.91047   -6.18321
       H    -4.65153    5.99243   -2.88798
       O    -5.03911    6.16507   -2.01729
      H1    -4.73832    5.47480   -1.46395
       H     0.55632   12.79837   -1.09560
       O     1.11222   12.07726   -1.47133
      H1     1.94346   12.50419   -1.68220
       H    -3.61378    6.99946    1.04822
       O    -3.53505    6.17082    1.53867
      H1    -2.94015    6.34782    2.30127
       H     0.63414    7.51306    1.63701
       O     1.48692    7.19066    1.84926
      H1     1.95058    7.93073    2.30104
       H    -0.39056    6.15005   -2.22479
       O    -0.35802    5.19379   -2.06773
      H1    -0.71494    4.96122   -1.22698
       H     3.36284    5.13612   -3.72047
       O     3.45906    4.81741   -4.68635
      H1     2.53528    4.96566   -5.01015
       H    -7.97271    8.26698   -0.35979
       O    -7.44992    7.65189   -0.88339
      H1    -7.37546    6.91901   -0.20292
       H    -4.43481    9.08054    1.66064
       O    -4.49215    9.36101    2.54808
      H1    -4.82147   10.27148    2.57881
       H     0.17589    5.59982   -6.05140
       O     1.05965    5.71403   -5.63898
      H1     0.89807    6.61075   -5.39044
       H     1.37515    4.40446   -2.01492
       O     2.06662    3.76216   -1.90430
      H1     1.98591    3.59327   -0.95698
       H    -1.08225   12.70257   -6.16449
       O    -1.10301   13.18181   -7.00083
      H1    -1.91242   12.89822   -7.51086
       H    -2.41114   11.02560   -2.13221
       O    -1.85905   10.47626   -2.68567
      H1    -2.50781   10.27592   -3.35409
       H     2.67945    7.28120    0.08218
       O     3.17047    7.96264   -0.43961
      H1     3.28454    7.53093   -1.29292
       H    -4.70325   11.64502   -4.81051
       O    -5.14992   12.48540   -4.44512
      H1    -6.09568   12.46035   -4.64403
       H    -0.54457   13.96917    0.98740
       O    -0.77895   13.49431    0.18682
      H1    -1.30766   14.11965   -0.35253
       H     4.91101    8.43057   -0.16477
       O     5.78752    8.77732   -0.12576
      H1     5.92770    9.21679   -0.97727
       H    -0.86723    5.67062    3.85066
       O    -1.79252    5.96232    3.90954
      H1    -2.25123    5.18855    4.29871
       H     2.67752   12.11240   -5.06146
       O     3.27646   11.42744   -4.72893
      H1     2.67578   10.94147   -4.16745
       H     3.72315    8.54719    2.55532
       O     3.08527    9.22416    2.90431
      H1     2.81144    9.69699    2.11308
       H    -4.23855    5.46408   -5.44904
       O    -3.30578    5.48255   -5.69656
      H1    -2.77860    5.04341   -5.04016
       H    -5.76979   11.38928   -1.09931
       O    -6.56418   10.88278   -0.98002
      H1    -6.29191    9.95330   -1.17866
       H    -1.92557    7.99233    3.96241
       O    -2.06281    8.89818    3.63562
      H1    -2.98212    8.87325    3.22663
       H    -0.20159   10.24841   -5.56529
       O    -0.17146    9.42736   -6.08512
      H1    -1.02546    9.18913   -6.39834
       H    -2.11021   11.77494    5.20805
       O    -1.57740   11.66006    4.42029
      H1    -1.76566   10.69607    4.20417
       H    -2.87951   11.62289    1.93916
       O    -2.31985   11.18548    1.25378
      H1    -1.90869   11.97780    0.87909
       H     4.84120    6.92123   -2.36677
       O     3.91457    7.01754   -2.68013
      H1     4.10307    7.70202   -3.29795
       H    -1.55220    8.60851    1.19566
       O    -1.16746    7.74068    0.95021
      H1    -0.93871    7.88907    0.02289
       H     1.60324   11.50574    2.04293
       O     2.03356   11.27812    1.23733
      H1     1.43213   11.49941    0.47966
       H    -4.30012   12.10989   -2.61886
       O    -3.94665   12.26302   -1.73280
      H1    -3.59680   13.14895   -1.83397
       H    -6.88321    5.27899   -2.44959
       O    -7.80714    4.91896   -2.50613
      H1    -7.72587    4.08205   -2.98519
       H     0.98755   15.84905   -3.20499
       O     0.31039   15.22949   -3.61859
      H1     0.17347   15.47170   -4.56210
       H     4.82560    8.43282   -5.18685
       O     4.95035    9.15809   -4.58840
      H1     4.36815    9.88201   -4.85555
       H     3.92261    3.90311   -1.88798
       O     4.87745    3.98011   -2.01654
      H1     5.19116    4.68738   -1.51598
       H    -4.97693    4.35876    0.27212
       O    -4.37816    4.00784   -0.41201
      H1    -3.48433    4.09229   -0.03571
       H     0.11070   12.64320   -4.25947
       O    -0.47595   11.94609   -4.47651
      H1    -0.73907   11.54305   -3.66155
       H    -4.05241   13.74626   -4.91679
       O    -3.47418   14.57782   -4.82113
      H1    -3.11241   14.53840   -3.93996
       H     3.56333   14.22933   -1.56079
       O     3.39854   13.54167   -2.22854
      H1     4.16587   12.95629   -2.24789
       H    -5.99450    9.04461   -3.24315
       O    -5.16762    8.83187   -2.78014
      H1    -5.17671    7.97051   -2.36746
       H    -5.03257    5.72650    2.71412
       O    -5.76841    5.56278    3.31376
      H1    -5.91370    6.44890    3.70099
       H     1.41026    8.61731   -8.46127
       O     1.48034    8.99009   -9.33305
      H1     2.37948    8.71166   -9.53370
       H    -1.45391    3.19283   -4.08924
       O    -1.88090    3.99551   -3.84454
      H1    -1.39054    4.48591   -3.15593
       H     0.26204    8.56798   -2.12343
       O    -0.50421    8.01623   -1.97868
      H1    -1.24660    8.55848   -2.15348
       H    -7.86906    8.73635   -4.42025
       O    -7.25569    9.54396   -4.42114
      H1    -6.78664    9.56212   -5.28245
       H     5.19282   12.71657    1.07288
       O     4.33944   12.86521    1.53106
      H1     3.61898   12.30669    1.20844

