168
frame 1 | Written by MDAnalysis XYZWriter (release 2.4.3)
       H     8.30599   -0.08246   -0.22019
       O     7.75671   -0.82726   -0.44244
      H1     8.25952   -1.54456   -0.02288
       H     3.15891   -5.75595   -5.84219
       O     3.41652   -4.87208   -6.23750
      H1     3.61906   -5.16733   -7.11853
       H     4.97350   -2.68678   -2.15522
       O     4.88933   -3.22932   -1.28393
      H1     5.21754   -4.06030   -1.54009
       H    10.72957   -1.47406   -0.34249
       O    11.27240   -1.23389   -1.08486
      H1    11.74608   -2.02030   -1.35236
       H     3.22627    3.05165  -10.64918
       O     3.82344    2.27055  -10.62910
      H1     4.41014    2.38946   -9.85870
       H    -1.20446   -1.79097   -2.93330
       O    -1.40193   -1.15847   -3.66731
      H1    -1.09096   -1.52338   -4.48672
       H     0.64765   -4.86019   -2.98628
       O     0.23095   -4.19639   -3.60088
      H1     0.97305   -3.78374   -4.05130
       H     5.76571   -2.59937    1.91234
       O     5.85288   -3.30888    1.30219
      H1     5.65276   -2.87405    0.45648
       H    12.96906   -4.69844   -2.31300
       O    12.58262   -3.81616   -2.08983
      H1    11.72646   -3.74913   -2.56790
       H    -1.16436   -5.39747   -6.28798
       O    -1.50389   -4.72861   -5.66519
      H1    -0.85351   -4.59936   -4.89679
       H    12.51852   -1.32126   -6.27337
       O    12.35659   -1.94152   -5.60952
      H1    11.69505   -2.54299   -6.07389
       H    -1.06620   -3.25611   -6.30109
       O    -1.00271   -2.27201   -6.45089
      H1    -1.97169   -2.06012   -6.67062
       H     2.25383   -2.05595   -0.00226
       O     2.29102   -2.82802   -0.63439
      H1     3.23413   -2.87096   -1.04475
       H    -0.01458   -2.82505   -0.82398
       O    -0.72913   -2.88785   -1.44850
      H1    -0.42425   -3.49051   -2.19684
       H     5.43514   -5.31155  -10.86342
       O     4.64563   -5.70671  -11.28865
      H1     3.84523   -5.21855  -10.99946
       H    10.43041    1.86583   -7.38649
       O     9.50222    2.26439   -7.23421
      H1     8.89812    1.76520   -7.86923
       H     2.16009   -3.28975   -6.27679
       O     1.62473   -2.88479   -5.58944
      H1     0.70914   -2.69603   -5.93989
       H     8.93061   -4.82295   -0.45748
       O     8.53986   -4.28583   -1.14489
      H1     9.25473   -3.99026   -1.74150
       H     4.23754    2.18907   -2.57284
       O     4.30137    1.21213   -2.71123
      H1     3.82786    0.91225   -1.85799
       H     5.32014    2.86376   -7.24046
       O     4.81583    2.54119   -8.04848
      H1     4.24539    1.80256   -7.85000
       H     4.70037   -1.36989   -9.94757
       O     5.23776   -0.70274  -10.36003
      H1     4.91239   -0.54046  -11.23713
       H     7.44857   -5.54500   -7.62995
       O     7.60712   -4.62297   -7.76463
      H1     7.02215   -4.22990   -7.10556
       H    -1.33645    0.85604   -4.44639
       O    -0.89883    1.58285   -4.92893
      H1     0.02619    1.40843   -4.88272
       H     9.53521   -6.85483   -1.19996
       O     9.38478   -7.23299   -2.11146
      H1     9.99367   -7.99606   -2.29972
       H     6.98991   -4.67597   -9.47941
       O     6.90887   -4.66856  -10.43696
      H1     7.03555   -3.80854  -10.78400
       H     3.57737   -7.97795   -5.04806
       O     2.80707   -7.41492   -4.85292
      H1     2.05905   -7.69615   -5.46247
       H     9.35931    1.21894   -3.95768
       O    10.19868    0.88258   -3.52469
      H1    10.99908    1.25263   -3.90355
       H    10.66558   -4.54502   -8.14177
       O    10.25255   -3.92774   -7.54211
      H1     9.34942   -4.17907   -7.52461
       H     2.55181    0.27108   -4.54996
       O     1.71278    0.09579   -5.00239
      H1     1.63200   -0.86055   -5.15884
       H     2.99952   -6.98763   -1.20462
       O     2.75822   -7.58992   -1.90671
      H1     2.74637   -6.99463   -2.64343
       H     5.65997    4.50164   -5.54011
       O     6.22852    3.79655   -5.95125
      H1     6.88187    3.48091   -5.29013
       H     7.65494   -8.04068   -7.65408
       O     6.86652   -7.51551   -7.71043
      H1     6.37148   -7.98531   -8.36822
       H     6.89849    0.69670   -9.78518
       O     7.17038    1.45856   -9.28291
      H1     6.44405    1.73179   -8.68043
       H     1.17294    2.10399   -2.39343
       O     1.05338    1.15919   -2.18543
      H1     1.12724    0.66701   -3.06060
       H     9.61810   -1.22807   -9.91181
       O     9.76667   -1.19465  -10.87822
      H1     9.81672   -0.26783  -11.07902
       H     6.26959    2.69858   -2.02081
       O     7.09276    2.89709   -1.58634
      H1     7.74347    2.21632   -1.77922
       H     2.21994    0.36297   -6.72920
       O     2.73457    0.46560   -7.55236
      H1     2.11851    0.80059   -8.23561
       H     6.63367   -5.66635   -2.37548
       O     6.58902   -4.93892   -3.00317
      H1     7.20724   -4.30966   -2.61958
       H     8.05930   -0.97230   -2.23942
       O     8.27503   -1.08880   -3.15723
      H1     9.08866   -0.59445   -3.40964
       H    10.69780   -0.54224   -7.48800
       O    10.30014   -1.20640   -8.07517
      H1    10.21348   -2.06990   -7.59830
       H     9.56491   -3.96342   -3.76541
       O    10.04858   -3.33584   -3.16961
      H1     9.58467   -2.46003   -3.02010
       H     4.84031   -3.58330   -5.88182
       O     5.61798   -3.03753   -6.13919
      H1     5.84402   -2.43258   -5.42716
       H     0.64420   -1.43675   -9.97263
       O     1.52045   -1.82673  -10.24358
      H1     1.73726   -1.07686  -10.91617
       H     2.85897   -4.22408    0.34015
       O     3.21915   -4.73442    1.07542
      H1     4.03809   -4.31028    1.41597
       H     9.90717   -8.13743   -5.59807
       O     9.56962   -7.46031   -6.26359
      H1     9.46424   -6.63152   -5.82172
       H     5.17927   -0.54610   -3.21188
       O     5.52691   -1.43323   -3.43039
      H1     6.48741   -1.20534   -3.13720
       H     6.62012   -1.66408  -11.14249
       O     6.92920   -2.13222  -11.87974
      H1     6.20599   -2.41149  -12.43956
       H     8.75022    2.31278   -5.65401
       O     8.25485    2.28172   -4.78398
      H1     8.56161    3.01539   -4.24577
       H     9.91282   -5.10156  -11.70876
       O     9.47720   -5.75840  -11.17823
      H1     8.63528   -5.39508  -10.83338
       H     4.10255    1.16814    0.36655
       O     3.28733    0.87585   -0.06677
      H1     2.98335    0.20336    0.52752
       H     5.91404   -7.89598   -6.16578
       O     5.44089   -8.43927   -5.46990
      H1     6.04602   -8.37752   -4.72730
       H     7.42022   -7.62139   -1.63658
       O     6.50081   -7.32365   -1.68831
      H1     5.88756   -8.05567   -1.91790
       H     7.96546   -5.07149   -4.53064
       O     8.85666   -5.42336   -4.48373
      H1     8.75265   -5.88079   -3.65325
       H     3.69792   -1.76501   -7.54648
       O     3.31807   -2.36636   -8.21897
      H1     2.58875   -1.90178   -8.63476
       H     3.19500   -4.00994   -8.79914
       O     2.72013   -4.87442   -8.98110
      H1     1.79176   -4.62229   -8.98809
       H     9.89677    1.62867   -1.31311
       O     9.39442    1.38581   -0.51394
      H1     9.92368    1.69060    0.19138

