168
frame 2 | Written by MDAnalysis XYZWriter (release 2.4.3)
       H    16.21427   12.76597    3.83408
       O    15.96905   12.34434    3.00454
      H1    16.85279   12.11419    2.55328
       H    17.08223    5.62004    5.13625
       O    17.75926    4.93915    5.13324
      H1    18.60534    5.48381    5.05865
       H    16.92211    5.21657   10.86178
       O    16.03397    5.60691   10.72062
      H1    15.43647    5.26542   11.32068
       H    18.11633   10.70563    1.31252
       O    18.29350   11.62540    1.40530
      H1    18.99162   11.71750    2.00877
       H    13.71197   15.24503    2.42882
       O    14.10252   14.42836    2.01061
      H1    14.57118   13.95585    2.71242
       H    17.69468   15.54005    2.29488
       O    18.57708   15.35214    1.82344
      H1    18.47202   14.46162    1.48254
       H    16.63609   18.58342   11.87077
       O    17.20001   18.04747   12.45374
      H1    17.71767   18.71590   12.97223
       H    17.55299   10.92196   11.63185
       O    17.86193   10.82782   12.55378
      H1    18.53823   10.11433   12.60571
       H    15.33253   11.59976   -0.88450
       O    14.83655   11.00315   -0.30921
      H1    14.85745   11.30172    0.60732
       H    12.38866   11.67130    7.88951
       O    11.48733   11.51444    8.10020
      H1    11.22057   12.16555    8.77585
       H    14.38459   15.98300    7.28566
       O    14.35215   15.51439    8.16832
      H1    15.29378   15.39916    8.50101
       H    14.52428   10.21610    8.78987
       O    14.59532    9.81640    9.67660
      H1    14.47272    8.86529    9.65211
       H    13.98862   10.23967   11.09009
       O    13.68289   10.48958   11.99111
      H1    12.79370   10.04445   12.09692
       H    13.34130   17.30500    2.90729
       O    13.11828   16.57965    3.45115
      H1    13.81756   16.60515    4.18932
       H    10.21076   16.33985   10.15972
       O    11.00924   16.17836    9.58475
      H1    11.75590   16.28068   10.21333
       H    12.34805    6.93355    6.65072
       O    12.32923    6.96408    5.68924
      H1    11.48520    7.39118    5.47457
       H    17.49977    8.89816    2.31180
       O    17.88768    8.52628    3.08018
      H1    18.75229    8.35506    2.74473
       H    18.03176    8.51407    4.85636
       O    18.34060    8.44675    5.76343
      H1    17.73521    8.08948    6.36086
       H    16.73171   14.27785    8.77813
       O    16.79159   15.18353    9.08220
      H1    16.86604   15.09205   10.05959
       H    11.41215   14.83052   14.52893
       O    11.84013   13.94815   14.49119
      H1    12.13185   13.78307   13.56845
       H    17.60533   10.53030    5.29692
       O    18.10503   11.31440    5.05470
      H1    18.91920   11.20005    5.54447
       H    15.21083    7.26052    6.96639
       O    15.84740    7.01297    6.24157
      H1    15.57489    7.52170    5.49389
       H    13.31646   17.33330    6.06881
       O    14.30902   17.20088    5.94063
      H1    14.76680   17.94087    5.65373
       H     9.77268   14.54669    4.70451
       O    10.40699   13.87500    4.52504
      H1    11.18291   14.01579    5.03852
       H    15.08143   20.05099   10.99218
       O    15.75179   19.42746   10.52645
      H1    15.03732   18.80113   10.27213
       H    16.99555   18.79094    5.10692
       O    16.44650   18.79060    4.26265
      H1    15.72511   19.42945    4.33239
       H    16.99646   11.88704    7.95463
       O    16.63472   12.46106    7.22036
      H1    17.09323   12.23995    6.41816
       H    13.94000    7.53772    2.99173
       O    14.22209    7.68780    3.93493
      H1    13.36475    7.43552    4.35256
       H    13.47393   13.73232    6.01864
       O    12.59815   14.04741    6.24869
      H1    12.59816   14.39488    7.16230
       H    19.31133   13.93658   13.16766
       O    18.43962   13.61593   13.15807
      H1    18.44947   12.67609   12.88307
       H    16.75447   10.30416   13.75485
       O    15.94120    9.83465   14.02810
      H1    15.28071   10.09806   13.38892
       H    12.29762    7.87353   11.95008
       O    11.68952    7.91639   11.18879
      H1    11.05374    7.19338   11.25790
       H    17.87836   19.51498    7.26867
       O    17.91281   18.87102    6.54035
      H1    18.67498   19.12072    5.98926
       H    18.52394    8.05512   13.65804
       O    19.19330    8.52113   13.14736
      H1    20.03818    8.46018   13.60698
       H    14.87520   11.68763    7.25561
       O    14.13865   11.13806    7.41432
      H1    14.17284   10.54196    6.67148
       H    19.46245   13.82063    8.93821
       O    19.63117   13.88793    7.97026
      H1    18.97798   14.39032    7.52118
       H    14.48592    9.21583    4.58752
       O    14.81937    9.94270    5.07324
      H1    14.89621   10.69647    4.49959
       H    19.33625    6.19431   10.94221
       O    19.78319    7.07061   10.87109
      H1    19.64936    7.41399   11.75107
       H    11.05095    7.41976    9.05304
       O    11.28659    6.83935    8.32062
      H1    11.13053    5.93568    8.56193
       H    10.49877   11.79317    6.92169
       O     9.82621   11.85024    6.22578
      H1     9.92932   12.66558    5.67189
       H    15.31859   15.83286   12.16291
       O    14.38501   15.68496   12.41940
      H1    14.34164   14.75057   12.42233
       H    11.14677   14.30030   10.05295
       O    11.29740   13.38470   10.17360
      H1    10.70416   13.09550   10.88332
       H    17.81005   10.23475    9.09671
       O    17.22556   10.92627    9.45761
      H1    16.45265   10.33706    9.68599
       H    16.89413   16.96222    4.09021
       O    16.97298   15.98597    4.19781
      H1    17.80241   15.76492    4.66424
       H    18.32061   16.48302    8.65673
       O    19.11716   16.93897    8.53321
      H1    18.86596   17.57124    7.86311
       H    13.79748   16.89113   11.25383
       O    13.57463   17.31515   10.36563
      H1    13.83772   16.72344    9.63474
       H    19.85491   15.87431    5.25495
       O    19.07114   15.74705    5.85790
      H1    19.30091   16.22877    6.65389
       H    14.84664   15.81935   14.25214
       O    14.58554   15.61703   15.18756
      H1    13.74840   15.19148   14.96506
       H    15.61304   14.71455    5.10026
       O    15.31147   13.79551    5.38477
      H1    15.85848   13.53133    6.13000
       H    16.16417    7.87433   14.10653
       O    16.62134    7.14315   14.51561
      H1    16.62062    6.39697   13.96426
       H    12.44692   13.26512   11.64683
       O    13.11898   13.12639   12.34082
      H1    13.18138   12.15103   12.19957
       H    13.43024    7.09824    9.26042
       O    14.37822    7.18099    9.05789
      H1    14.89191    6.50329    9.57944
       H    13.25869    9.68656    3.11552
       O    12.64103   10.07064    2.45388
      H1    11.74419   10.03426    2.80649
       H    20.04309    8.92905    8.35526
       O    19.25342    9.02000    8.94404
      H1    19.42824    8.47774    9.73621
       H    17.20065   16.40275   11.67802
       O    17.14842   15.47566   11.64448
      H1    17.61447   15.15220   12.51390
       H    19.08514   12.23885   10.04243
       O    19.56923   12.93905   10.51333
      H1    19.04646   13.20348   11.28036

