168
frame 2 | Written by MDAnalysis XYZWriter (release 2.4.3)
       H    18.96625  -11.76897   13.49394
       O    19.40763  -12.48386   13.04572
      H1    19.40766  -13.29771   13.63469
       H     9.27838  -11.88856   10.90547
       O     9.85508  -12.63860   10.64183
      H1     9.28329  -13.39927   10.57055
       H    17.89621  -11.64047   15.13213
       O    17.75455  -12.36695   15.70477
      H1    16.88019  -12.13096   16.16957
       H    12.46212   -7.14356   11.16729
       O    11.47764   -7.11823   11.10225
      H1    11.25743   -6.18497   10.95323
       H    10.92100  -16.75466   11.67842
       O    11.27832  -17.07236   10.78886
      H1    10.54971  -17.51241   10.28132
       H     9.43274  -14.48361   14.05539
       O    10.06666  -14.89485   14.65358
      H1     9.55097  -15.41309   15.28983
       H    14.54830  -17.11311   14.07776
       O    14.34718  -17.48030   14.95603
      H1    13.73493  -16.83913   15.34666
       H     8.02038  -10.73865   12.40353
       O     8.06803  -10.49716   11.46162
      H1     8.42846   -9.61684   11.61955
       H    12.27413  -12.97486   15.38791
       O    11.55184  -12.98800   16.05551
      H1    10.82499  -13.25803   15.52341
       H    14.73626   -7.35266   11.88314
       O    14.08227   -7.38671   11.14869
      H1    14.29299   -6.74156   10.44467
       H    19.00845  -11.16821    8.55454
       O    18.20042  -11.00434    9.10010
      H1    18.23015  -11.72770    9.76651
       H    13.73121  -11.39512   14.92787
       O    13.28052  -10.55919   14.73344
      H1    12.64735  -10.85998   14.07596
       H    16.64950  -16.51818   12.54090
       O    17.06738  -16.82587   11.70903
      H1    17.98208  -17.03405   11.93803
       H    10.69409  -16.35684   13.89007
       O    10.86483  -17.21522   13.45179
      H1    10.93315  -17.92716   14.15926
       H    15.56817  -13.10156   17.20425
       O    15.31693  -12.36911   16.68631
      H1    15.28214  -11.67504   17.31848
       H    13.73690  -13.33617    9.85377
       O    13.63694  -12.48107    9.46798
      H1    12.76943  -12.43586    9.05529
       H    10.77961   -8.66524   15.85002
       O    10.42957   -8.23071   15.09991
      H1     9.60436   -7.77375   15.40469
       H    13.25732   -6.66413   15.74258
       O    12.71359   -6.01340   15.23034
      H1    12.18856   -6.58590   14.67331
       H    13.10919   -4.26792   13.72151
       O    13.06508   -3.30212   13.65206
      H1    13.64108   -3.17855   12.83169
       H    12.40675  -10.17433   16.16715
       O    11.93343   -9.89759   16.94709
      H1    11.83724  -10.69641   17.49269
       H    12.99703   -9.25682   18.35214
       O    13.59431   -8.92337   19.03073
      H1    13.51548   -7.96686   18.93916
       H    14.60232   -8.63171    9.84846
       O    15.03106   -9.07693    9.11204
      H1    14.50238   -9.80910    8.75182
       H    11.16039  -12.41676   18.94973
       O    12.02179  -12.15657   18.61334
      H1    12.05169  -12.62675   17.76010
       H    15.41771   -8.56891   16.32025
       O    14.78913   -8.44919   15.60995
      H1    14.50404   -9.39240   15.47820
       H     7.20728   -5.81461   12.88063
       O     7.62595   -5.90894   12.04981
      H1     7.99119   -6.77629   12.09192
       H     7.31211  -11.79475   19.32430
       O     7.04087  -11.74194   18.42990
      H1     7.82978  -11.54142   17.90075
       H    10.29872  -12.22875   12.66500
       O    10.93008  -11.66969   13.06463
      H1    11.65725  -11.61155   12.35028
       H     7.50290  -16.58128   15.59435
       O     8.24946  -16.50168   16.20825
      H1     8.05254  -15.69490   16.72440
       H     9.21354   -8.69848   13.38066
       O     9.00015   -8.16244   12.59480
      H1     9.87257   -7.91674   12.32638
       H     9.91193   -6.06897   17.08908
       O    10.56425   -5.42758   17.36259
      H1    11.40494   -5.50945   16.82826
       H    15.29510  -12.26689    7.98559
       O    16.00899  -11.77228    7.54220
      H1    16.76025  -11.50064    8.16034
       H    14.43164  -14.03240   14.51624
       O    13.68495  -13.68642   14.09378
      H1    14.11148  -13.10083   13.42449
       H    16.63398   -9.79272   18.80434
       O    16.09005   -9.54169   18.07485
      H1    15.30082   -9.11910   18.43852
       H     7.70435  -12.77096   13.62475
       O     8.17820  -13.51297   13.25809
      H1     7.54043  -14.09992   12.76335
       H    11.92057  -16.17443   17.21469
       O    12.44978  -15.79394   16.45253
      H1    11.95490  -15.02403   16.23783
       H    14.64889  -15.03962   11.08883
       O    15.26541  -14.38961   10.76360
      H1    16.05566  -14.95432   10.45858
       H    15.50776   -7.69228   14.13996
       O    15.97453   -7.23411   13.39932
      H1    16.12518   -6.33504   13.76267
       H    16.09610  -14.28429   19.02357
       O    15.67757  -14.62387   18.20991
      H1    14.72814  -14.68076   18.40285
       H    13.72270  -10.78483   12.34856
       O    13.39828  -11.60518   11.99987
      H1    13.69604  -11.70658   11.05777
       H    12.86297  -16.61199   12.98744
       O    13.64132  -16.06643   12.72525
      H1    13.45498  -15.19927   13.13706
       H    16.89918  -13.90111   14.81221
       O    16.16435  -14.57192   14.86837
      H1    16.37076  -15.02002   15.71332
       H    16.04862   -5.73377   17.41624
       O    15.47023   -5.31171   18.07963
      H1    15.15834   -4.51688   17.59595
       H    17.80007   -9.59369   14.27939
       O    17.94533  -10.19067   13.55747
      H1    17.29849   -9.99314   12.80066
       H     9.90266   -6.65456    8.47981
       O    10.76111   -7.12591    8.41847
      H1    11.00376   -7.22115    9.37544
       H     9.17976   -9.47399   16.68826
       O     8.94258  -10.40955   16.68749
      H1     9.80113  -10.80618   16.64768
       H     6.85409  -13.40961   17.61337
       O     6.76246  -14.03206   16.88165
      H1     6.37789  -13.58132   16.17870
       H    17.69320   -6.67152   15.69116
       O    17.33930   -5.82199   16.01409
      H1    17.91739   -5.53649   16.71100
       H     7.77720  -10.71304   14.99738
       O     7.29896  -10.93332   14.18779
      H1     6.40434  -10.51965   14.29532
       H    18.55659   -7.25202   11.08570
       O    18.45760   -6.49999   11.69222
      H1    17.91505   -6.74723   12.45942
       H    18.88290   -7.52608   14.82053
       O    18.39253   -8.15526   15.29502
      H1    18.74655   -8.27393   16.21465
       H    15.76443  -11.24209   11.20975
       O    16.20059  -10.37189   11.29306
      H1    16.12270   -9.97367   10.41303
       H     7.56898   -6.98395   15.92416
       O     8.29184   -7.26878   16.54404
      H1     7.84144   -7.68855   17.30628
       H    18.97996   -8.25486    9.18158
       O    19.00546   -8.39458   10.10398
      H1    18.45834   -9.12709   10.27413
       H    15.46625  -17.23774   16.13876
       O    15.93538  -17.13693   17.00244
      H1    15.59650  -16.33219   17.36432
       H    10.49081  -12.42851    9.07824
       O    11.12067  -12.32636    8.34643
      H1    10.89503  -12.96634    7.64903
       H    10.25259   -8.98627    8.30419
       O     9.69788   -9.80741    8.23712
      H1    10.34098  -10.54150    8.04461

