168
frame 1 | Written by MDAnalysis XYZWriter (release 2.4.3)
       H   -14.91242   -6.35110   10.31570
       O   -15.85989   -6.59702   10.13036
      H1   -16.19687   -5.74420    9.81287
       H   -17.33692   -5.55182   -1.55212
       O   -17.48006   -6.39395   -1.90364
      H1   -16.92130   -6.28777   -2.63510
       H   -13.60949    0.71483    5.64327
       O   -14.34549    0.42071    5.11280
      H1   -15.16562    0.83999    5.29483
       H   -16.49266   -6.59174    1.25557
       O   -15.95502   -7.27356    0.76349
      H1   -16.58611   -7.87035    0.32764
       H   -17.12600    3.03587    7.27095
       O   -17.74748    2.29579    7.14286
      H1   -18.54852    2.60667    7.60176
       H   -16.06043   -8.70279    3.89264
       O   -15.44265   -8.77257    3.11213
      H1   -15.89487   -8.19844    2.45504
       H   -19.03228   -1.73552   -0.64046
       O   -18.79613   -2.29239    0.14210
      H1   -18.44197   -1.66407    0.84199
       H   -14.54924   -8.07821    7.58437
       O   -15.43917   -8.22731    7.98138
      H1   -15.62183   -7.54921    8.62500
       H   -18.83256  -11.25448    2.42266
       O   -19.34630  -11.06115    1.61787
      H1   -19.30937  -10.07479    1.39897
       H   -11.84392   -3.53743   -1.18657
       O   -11.44966   -2.63162   -1.16173
      H1   -11.56276   -2.44116   -0.22428
       H   -17.06177   -7.91267   10.67760
       O   -17.43322   -8.75195   10.97738
      H1   -18.36312   -8.79790   10.69986
       H   -16.71492    1.87581    4.09025
       O   -16.90852    1.20962    4.77037
      H1   -17.10148    1.68540    5.60004
       H    -9.86178   -4.49237    2.55134
       O    -9.30411   -4.11729    3.26168
      H1    -8.93043   -3.30601    2.94032
       H   -17.52250   -9.38614    6.00061
       O   -17.25010   -9.87408    6.76623
      H1   -16.67246   -9.25723    7.24471
       H   -14.03574   -0.13170    3.35523
       O   -13.92354   -0.51560    2.43661
      H1   -14.40106   -1.36400    2.48554
       H   -13.49485   -4.31551    9.83380
       O   -13.29818   -5.23692    9.87462
      H1   -13.42013   -5.50149    8.98676
       H   -11.30578   -1.00917    4.50931
       O   -11.14647   -0.05409    4.46286
      H1   -10.19848   -0.00840    4.42138
       H   -14.93802   -0.00554   -0.12774
       O   -15.35168    0.51563    0.50603
      H1   -14.87549    0.07673    1.23171
       H   -17.21386    1.06301    8.57448
       O   -16.84889    0.43640    9.23316
      H1   -16.68793   -0.41278    8.84323
       H   -10.38531   -3.26196    4.49635
       O   -11.04905   -2.83737    4.94717
      H1   -11.44561   -3.64347    5.33713
       H   -19.29746   -4.96548   -1.07996
       O   -19.41379   -4.87743   -0.14323
      H1   -19.23924   -3.90980    0.06837
       H    -8.39342   -3.27639    6.03289
       O    -8.87050   -2.62739    6.54234
      H1    -9.78540   -2.63283    6.26484
       H   -15.26066    1.03967    9.13109
       O   -14.34810    1.31803    8.85096
      H1   -13.85279    0.50360    8.68421
       H   -14.46597   -3.66600    3.44325
       O   -14.68345   -3.06251    2.71614
      H1   -14.37561   -3.50548    1.92304
       H   -18.96969   -8.99088    4.68907
       O   -18.15094   -8.53862    4.41089
      H1   -18.41818   -7.72388    3.97436
       H   -13.20844    2.59844    1.50355
       O   -14.07773    2.72276    1.07285
      H1   -14.28216    1.78380    0.88144
       H   -13.68872   -5.41810    5.02833
       O   -14.21735   -4.64444    5.05622
      H1   -14.01764   -4.12903    5.80468
       H   -14.66458   -8.85486   11.08149
       O   -14.10714   -8.94392   10.33892
      H1   -14.66420   -8.76052    9.61559
       H   -19.03325    1.09337    4.79082
       O   -19.64319    1.81312    4.74813
      H1   -19.38412    2.44473    5.44829
       H   -17.13302   -1.51828    7.20766
       O   -16.70217   -1.87307    8.02079
      H1   -15.81173   -2.00589    7.69862
       H   -11.58105   -1.32769    8.41371
       O   -12.08742   -0.49445    8.22650
      H1   -11.43307    0.19234    8.19369
       H    -9.19247   -6.21499    6.79772
       O   -10.08397   -6.56224    6.65215
      H1   -10.02426   -6.75346    5.73821
       H   -13.64633   -2.77041   11.54876
       O   -14.08695   -2.91271   10.67160
      H1   -15.03751   -2.70203   10.90312
       H   -17.49935   -9.29663   -1.01106
       O   -18.19589   -8.74316   -0.59323
      H1   -17.99620   -7.92357   -1.05505
       H   -14.49963  -10.11197    2.47340
       O   -13.96690  -10.90912    2.21992
      H1   -13.03234  -10.62403    2.40025
       H   -11.97174   -8.20906    6.97029
       O   -12.81483   -8.21689    6.57138
      H1   -12.78236   -7.61193    5.80077
       H   -11.48101   -2.74791    1.68554
       O   -11.41404   -1.79401    1.71060
      H1   -12.31612   -1.49808    1.84917
       H   -11.59402   -5.48093    1.23948
       O   -10.95465   -4.76810    1.28697
      H1   -10.34492   -5.03207    0.54561
       H   -16.86210   -4.29849    4.47365
       O   -17.02444   -4.09015    3.51996
      H1   -16.24660   -3.68392    3.12683
       H   -17.38123   -0.29859    5.07610
       O   -17.50374   -1.26251    5.21383
      H1   -17.06153   -1.81552    4.54367
       H   -17.62095   -0.12339    2.85384
       O   -17.24751   -0.84661    2.27158
      H1   -16.54748   -0.32646    1.85134
       H   -17.55768   -4.34703    9.75924
       O   -16.88825   -4.25241    9.04812
      H1   -16.97736   -3.30782    8.66825
       H   -11.94659   -7.14015    3.69474
       O   -12.67137   -6.82314    4.30136
      H1   -13.50982   -7.07275    3.82539
       H   -16.44894   -2.58475   -2.00235
       O   -16.30123   -2.25165   -1.10663
      H1   -17.19403   -2.06903   -0.72733
       H   -12.96208   -6.14279   -1.85084
       O   -13.23099   -5.22396   -1.98097
      H1   -12.80684   -4.91544   -2.77022
       H   -19.59126   -2.25724   11.17752
       O   -19.53349   -2.91861   11.85268
      H1   -19.62421   -2.42686   12.68325
       H   -18.80673   -5.73674    1.43383
       O   -18.36547   -6.07689    2.17991
      H1   -17.93140   -5.26052    2.63113
       H   -15.61057  -10.86248    6.70559
       O   -14.78465  -11.17104    6.37171
      H1   -14.35941  -10.37342    5.98582
       H   -17.53905    2.83956   -0.70252
       O   -17.84810    1.98162   -0.41719
      H1   -17.07319    1.38829   -0.25448
       H   -15.92374   -5.11325    5.85346
       O   -16.79817   -4.89278    6.17825
      H1   -16.75119   -4.89594    7.16766
       H   -11.26320   -5.28711    7.01273
       O   -12.13859   -4.85679    7.23218
      H1   -11.89874   -4.22066    7.91492
       H   -18.35887   -5.60930    6.57334
       O   -19.27276   -5.89444    6.68631
      H1   -19.62687   -6.11993    5.82952
       H   -14.24573   -1.54989    5.92391
       O   -14.23345   -2.00632    6.81084
      H1   -13.38267   -1.90768    7.24840
       H   -13.84343   -6.92034    0.82621
       O   -12.94790   -6.64156    1.01822
      H1   -12.55539   -7.20614    0.31003
       H   -13.98878   -4.32846   -0.53890
       O   -14.27267   -3.73222    0.17320
      H1   -15.11798   -3.27576   -0.08021
       H   -10.90676   -2.71021    9.65985
       O   -10.80779   -2.89140    8.72719
      H1    -9.85321   -2.94127    8.56110

