168
frame 3 | Written by MDAnalysis XYZWriter (release 2.4.3)
       H     6.27561  -10.18726    8.66036
       O     5.95835  -10.44106    9.54642
      H1     6.73137  -10.26060   10.14546
       H    10.25103   -3.84922   16.37892
       O    10.26205   -4.16096   17.31681
      H1    10.17232   -5.13815   17.30038
       H     9.40160  -13.81606   14.55397
       O     9.93416  -14.20119   15.26807
      H1     9.33265  -14.88038   15.61082
       H     7.61964   -9.86304   12.54759
       O     7.88492  -10.06106   11.61121
      H1     8.69378   -9.52645   11.54900
       H     3.90370   -3.12409   13.73164
       O     4.45895   -3.94156   13.64213
      H1     3.91849   -4.66447   13.93792
       H    12.95219  -13.36068   15.32271
       O    12.40646  -13.59216   16.08572
      H1    11.56715  -13.81356   15.64605
       H     4.65429  -15.28437   19.90628
       O     5.19974  -15.94478   19.44380
      H1     5.68263  -15.41869   18.77686
       H    13.15350  -10.84088   15.69121
       O    12.62632  -10.28728   15.08720
      H1    12.08683  -10.83343   14.48388
       H     1.03317   -8.41235   13.16794
       O     1.73198   -8.50613   13.82807
      H1     2.53803   -8.10103   13.48006
       H     5.66997  -13.22374   11.94497
       O     6.17608  -14.00717   11.93899
      H1     6.57671  -14.00287   11.03071
       H     8.87740   -7.89770   14.53253
       O     9.62722   -7.47354   14.06903
      H1     9.84954   -8.18810   13.42463
       H    12.84917   -7.08261   15.23238
       O    12.02828   -6.71923   15.50418
      H1    11.41209   -7.11930   14.91185
       H    11.69107  -10.21538   16.76729
       O    11.42275  -10.14296   17.70487
      H1    11.52651  -11.02726   18.02650
       H    12.60164   -8.92633   18.50256
       O    13.26569   -8.41167   19.01916
      H1    12.91450   -7.69948   19.57320
       H    -0.10180  -13.79627   19.11386
       O    -0.28044  -12.91060   18.86090
      H1     0.36676  -12.73548   18.14568
       H     6.26326   -4.52320   16.05761
       O     6.70434   -4.36968   15.22649
      H1     5.95724   -4.04694   14.66728
       H    10.84941  -12.96697   18.83414
       O    11.75838  -12.75452   18.66902
      H1    11.95370  -12.97517   17.74951
       H     4.16810   -0.50055   16.82156
       O     4.23713   -0.66422   15.87232
      H1     5.19479   -0.93680   15.83614
       H    14.92603   -8.36744   15.55780
       O    14.22716   -8.20182   14.84953
      H1    13.69944   -8.99710   14.75839
       H     8.51585   -6.51847   12.91026
       O     7.97496   -6.21587   12.10048
      H1     8.58301   -6.34639   11.35242
       H     0.87827  -11.01264   15.95117
       O     0.13139  -10.92056   15.31562
      H1    -0.42322  -11.69176   15.49007
       H     7.03256  -11.87858   19.23566
       O     6.62947  -11.79341   18.39510
      H1     7.43112  -11.52578   17.87839
       H    10.16545  -11.74924   11.98763
       O    10.81956  -11.24339   12.54090
      H1    11.63070  -11.48130   12.04129
       H     4.76506   -9.74818   14.69044
       O     5.02829   -9.48980   13.80193
      H1     4.67748  -10.14945   13.15240
       H     7.71921  -16.49775   15.35583
       O     8.15415  -16.08687   16.12886
      H1     7.41554  -15.57680   16.45317
       H    10.80486   -9.48202   11.68035
       O    10.23401   -8.71789   11.61562
      H1    10.74809   -7.93454   11.31497
       H     8.94333   -7.17333   17.54778
       O     9.83955   -6.75645   17.80143
      H1    10.49032   -7.25852   17.28855
       H     3.70877   -7.08952   10.95262
       O     3.16146   -7.34800   10.21292
      H1     2.26229   -7.17061   10.51371
       H     3.31677   -9.99813   16.30592
       O     4.15732  -10.44150   16.10000
      H1     4.47887  -10.75535   16.97900
       H     8.03957  -12.01751   13.74769
       O     8.18351  -12.89643   13.51992
      H1     7.53631  -13.19530   12.90289
       H     7.60012   -2.31857   17.46946
       O     8.19265   -2.63834   18.12734
      H1     8.74317   -3.32121   17.77744
       H     5.82290   -8.92570   19.73096
       O     5.78614   -9.23852   18.81150
      H1     6.09176  -10.15163   18.78199
       H    12.16772   -4.09085   17.80271
       O    13.10663   -4.04379   17.64181
      H1    13.27728   -3.77260   16.70490
       H     8.45794   -4.37049   12.05357
       O     8.62740   -3.40836   12.20399
      H1     8.80793   -3.30350   13.14631
       H     5.14782   -4.83705   12.26053
       O     5.35330   -5.46668   11.54115
      H1     6.23946   -5.79857   11.76954
       H     2.97919  -10.49693   11.46925
       O     2.31229   -9.86455   11.08050
      H1     2.76159   -9.01008   10.94500
       H     4.57065   -6.54577   12.90218
       O     3.94668   -7.13885   13.35276
      H1     4.51798   -7.92105   13.33505
       H     4.56727   -7.89771   18.15395
       O     3.86202   -7.27685   18.01521
      H1     4.26967   -6.45949   17.60782
       H     5.06073  -11.61790   10.88021
       O     4.59577  -11.82927   11.70131
      H1     3.80485  -12.18773   11.33027
       H     0.81382   -5.91467   12.47268
       O     0.80857   -5.01628   12.83955
      H1     1.52131   -5.17028   13.49512
       H    -0.34735   -7.42311   18.01297
       O    -0.49298   -8.16918   18.65842
      H1     0.38012   -8.53417   18.78184
       H     4.63099  -12.86154   15.09833
       O     3.92500  -13.44562   15.39090
      H1     3.39012  -12.91384   16.01010
       H    -1.30493   -5.50566   16.23153
       O    -0.52604   -5.94688   16.52497
      H1    -0.48899   -6.61181   15.83446
       H     1.45991   -3.03433   18.26080
       O     1.92561   -3.20806   19.06899
      H1     2.00180   -2.34053   19.48111
       H     8.20894   -9.40140   17.05325
       O     8.65104  -10.28451   17.01983
      H1     9.59512  -10.06554   17.19201
       H     6.41691  -13.48367   17.83567
       O     6.28744  -14.38463   17.46729
      H1     5.56902  -14.24884   16.80189
       H     7.79692  -10.36230   15.39093
       O     7.55099  -10.22624   14.47678
      H1     6.59551  -10.08154   14.43669
       H     7.34178   -0.98152   15.68112
       O     6.70944   -1.61899   16.09928
      H1     6.83972   -2.44790   15.63036
       H     3.80010   -4.36301   16.82589
       O     4.60999   -4.71766   17.19295
      H1     4.95237   -4.02467   17.79697
       H     5.32508   -6.97626   15.05161
       O     6.25200   -6.84155   14.76905
      H1     6.40432   -5.86349   14.86960
       H     7.02809   -7.56246   16.28132
       O     7.36866   -7.84992   17.17791
      H1     6.65218   -8.29219   17.66996
       H     1.40401   -5.27575   16.38334
       O     2.03528   -4.94217   15.71354
      H1     1.77999   -4.02211   15.70472
       H     1.84113   -8.81752   15.50319
       O     2.14234   -8.83959   16.47178
      H1     2.71852   -8.11121   16.53674
       H    10.61987   -3.31925   14.07318
       O     9.86702   -3.05212   14.60670
      H1     9.87240   -2.12731   14.78597
       H     2.02556  -13.45902   17.10283
       O     2.07797  -12.44506   17.21389
      H1     2.20656  -12.32749   18.20015
       H     4.91615   -2.43659   20.00686
       O     5.11771   -2.44398   19.10295
      H1     5.89676   -1.86804   19.00261

