168
frame 5 | Written by MDAnalysis XYZWriter (release 2.4.3)
       H    -7.87585   -9.52854    2.18310
       O    -8.47201   -9.88571    1.53680
      H1    -8.34967   -9.34829    0.71382
       H   -16.57993   -4.87828   -2.20340
       O   -17.12123   -4.43036   -1.55740
      H1   -17.82665   -3.99924   -2.08804
       H   -15.99829   -8.52016   -2.80774
       O   -15.50437   -7.91319   -2.17695
      H1   -14.98059   -7.34571   -2.81989
       H   -15.34724   -8.71786    0.77871
       O   -15.22022   -7.85079    0.51908
      H1   -15.07806   -7.92781   -0.42035
       H    -9.70121   -1.41090    2.70779
       O    -8.83040   -1.76455    2.86954
      H1    -8.27095   -1.03857    3.15184
       H   -17.60601   -4.86108    0.36664
       O   -18.05018   -5.09275    1.18931
      H1   -18.84138   -4.49303    1.18249
       H   -10.20247   -9.70339    2.61382
       O   -10.70268   -9.48762    3.43372
      H1   -10.82921  -10.40866    3.80540
       H   -14.80114   -5.08524   -4.18070
       O   -15.54740   -4.45699   -3.98693
      H1   -16.28433   -4.70442   -4.63816
       H   -13.26887   -3.72233   -1.70683
       O   -12.40321   -4.01945   -1.53008
      H1   -11.92613   -3.31362   -1.01359
       H    -8.17671   -6.52791   -4.40393
       O    -8.24764   -6.08314   -3.56796
      H1    -9.24252   -5.92789   -3.45418
       H    -7.83878   -4.55016   -4.56804
       O    -7.76001   -3.91642   -5.32122
      H1    -7.06435   -4.16222   -5.92333
       H   -10.21962   -5.23252    3.61901
       O    -9.82278   -5.32009    4.47210
      H1    -8.86507   -5.27696    4.35956
       H   -10.85170  -12.42127   -0.88072
       O   -10.33006  -11.59797   -0.78991
      H1   -10.92245  -10.89524   -1.02489
       H   -14.10822   -0.54598    2.33725
       O   -13.84282   -0.97885    1.52984
      H1   -14.30991   -1.83349    1.61375
       H    -9.20323   -5.73075   -6.54722
       O    -8.76069   -6.56897   -6.35251
      H1    -7.92857   -6.53929   -6.89459
       H   -11.74131   -1.23276    3.75026
       O   -11.39934   -0.31799    3.61861
      H1   -10.76416   -0.05612    4.30309
       H   -16.06110   -1.27444   -0.21456
       O   -16.87941   -1.26700    0.35232
      H1   -16.54767   -1.11486    1.21556
       H   -12.82672   -3.42775    3.65664
       O   -12.64428   -2.60375    4.10901
      H1   -13.47509   -2.09919    4.44198
       H   -18.22851   -8.53171   -1.23819
       O   -18.45758   -7.58488   -1.01792
      H1   -17.71233   -7.10533   -1.37049
       H   -10.17628   -3.96635    6.17827
       O   -10.90709   -3.33159    6.36062
      H1   -11.48781   -3.25707    5.55605
       H    -8.07699   -6.32316   -0.06165
       O    -8.19412   -5.37185    0.21260
      H1    -7.36741   -5.14593    0.62111
       H   -14.81918   -4.60479    1.66873
       O   -14.90628   -3.61704    1.58104
      H1   -14.79337   -3.43835    0.63861
       H   -11.22425  -11.58190    5.22124
       O   -11.25765  -11.90423    4.30704
      H1   -10.44691  -12.42381    4.17274
       H   -15.09308  -13.07354    1.35428
       O   -14.56252  -12.54449    0.75284
      H1   -14.12188  -11.92463    1.27141
       H   -18.58976  -10.05299    3.32713
       O   -18.31908   -9.97935    2.38959
      H1   -17.66724   -9.25809    2.34598
       H   -14.55869   -8.10642   -6.17087
       O   -13.99045   -8.63573   -5.58369
      H1   -13.19460   -8.58254   -6.14997
       H   -13.29232   -6.29608    3.75629
       O   -13.50013   -5.34028    3.94642
      H1   -13.51290   -5.18518    4.90974
       H    -8.03256  -10.43048    5.49615
       O    -8.62612   -9.70457    5.42737
      H1    -8.96803   -9.59294    4.57050
       H   -12.03413  -10.46631   -5.85648
       O   -11.51307  -10.22922   -5.02474
      H1   -12.12813  -10.34345   -4.27102
       H   -10.90581   -8.91161   -5.87451
       O   -10.89678   -8.07327   -6.41946
      H1   -10.04895   -7.62885   -6.29283
       H   -11.40791   -5.14051   -4.47021
       O   -11.08535   -5.54933   -3.61250
      H1   -11.39255   -4.94811   -2.93224
       H    -8.33624   -8.37073   -1.07264
       O    -7.90321   -7.94885   -0.24460
      H1    -7.00679   -8.25199   -0.39555
       H   -10.51615   -6.81928    5.27725
       O   -10.85039   -7.47590    5.93390
      H1   -10.97666   -8.25624    5.50376
       H   -17.32550  -10.64435   -1.43776
       O   -17.88159  -10.03541   -1.92390
      H1   -18.80182  -10.34861   -1.81728
       H   -13.54788   -9.81930    2.66140
       O   -13.48821  -10.80821    2.63782
      H1   -12.74890  -10.90874    3.27452
       H   -13.99866  -10.08313   -3.54749
       O   -13.36450  -10.57063   -2.99951
      H1   -13.91177  -11.39846   -2.84933
       H   -11.42957   -3.04455    1.03104
       O   -11.71989   -2.27902    0.51220
      H1   -12.50778   -1.83298    0.89597
       H   -11.29010   -4.96408    1.44885
       O   -10.60009   -4.62556    2.04641
      H1    -9.84485   -4.97880    1.57491
       H   -17.34762   -4.38036    4.30364
       O   -17.60592   -3.61764    3.73354
      H1   -17.46609   -3.94788    2.80039
       H    -9.05119   -9.18182   -3.35738
       O    -9.11771   -8.53793   -2.67080
      H1    -8.94349   -7.65856   -3.05839
       H    -8.04228   -2.49505   -0.09563
       O    -8.23665   -1.70842    0.35060
      H1    -8.58078   -2.04142    1.19011
       H    -6.60155   -3.79274    3.08296
       O    -7.22456   -3.64334    3.78620
      H1    -7.82452   -2.98218    3.40085
       H    -8.43989  -11.82736    1.31494
       O    -8.64122  -12.60830    0.80971
      H1    -9.24422  -12.21653    0.13902
       H   -12.45051   -7.99042    2.47036
       O   -13.40573   -8.05875    2.54929
      H1   -13.75205   -7.66528    1.74420
       H   -13.65177   -7.48538   -4.29306
       O   -13.68871   -6.68604   -3.73324
      H1   -12.82505   -6.33275   -3.67791
       H   -12.31575  -14.03789   -1.36067
       O   -11.87524  -13.76338   -0.56642
      H1   -12.68855  -13.34511   -0.18600
       H   -17.88612   -6.64531    2.37629
       O   -17.12708   -6.98817    2.81683
      H1   -16.38851   -7.04113    2.14196
       H   -12.49630   -1.05898   -3.10019
       O   -12.93096   -1.77138   -3.59409
      H1   -12.71507   -2.53211   -3.13195
       H    -7.42479   -3.69205   -2.68146
       O    -7.59615   -3.52599   -1.77976
      H1    -7.82634   -4.38631   -1.42836
       H   -16.00356   -5.26823    5.41413
       O   -16.79535   -5.68996    5.07881
      H1   -16.53353   -6.11072    4.24781
       H   -10.75023   -8.05641   -1.67167
       O   -11.42324   -8.20638   -0.96061
      H1   -12.25063   -8.41460   -1.39688
       H   -12.23492   -5.84914   -6.49930
       O   -12.15462   -4.99881   -6.04064
      H1   -11.51213   -4.53169   -6.51479
       H   -12.41831   -5.41902   -0.43985
       O   -12.11291   -5.95944    0.32662
      H1   -11.81686   -6.78786   -0.07113
       H   -15.78277   -3.21403   -1.17783
       O   -14.91672   -2.80337   -1.12750
      H1   -14.89165   -1.92122   -1.54147
       H    -9.39045   -0.35357   -0.03748
       O    -9.97770    0.38546   -0.12900
      H1    -9.40063    1.16175   -0.06179
       H    -5.41017   -5.06991    1.87029
       O    -5.87045   -4.44733    1.25181
      H1    -5.46987   -4.51680    0.36533

