168
frame 3 | Written by MDAnalysis XYZWriter (release 2.4.3)
       H    14.08955  -12.92769    4.43287
       O    13.40935  -12.67165    3.78926
      H1    12.70072  -13.30779    3.85709
       H     8.63830  -12.13509   10.89053
       O     9.25843  -12.84724   10.71073
      H1     8.65808  -13.51292   10.33229
       H    10.97120  -17.28194   12.11689
       O    11.48742  -17.48731   11.32820
      H1    10.87794  -17.24363   10.65584
       H     7.09876  -17.57721   13.36182
       O     7.64888  -16.81883   13.14776
      H1     7.06277  -16.10423   13.19191
       H    10.03994  -13.32133   -0.76075
       O     9.16086  -13.27192   -0.33216
      H1     8.72197  -12.47718   -0.63012
       H    13.03748  -17.95582   11.26758
       O    13.95999  -18.33835   11.26954
      H1    14.03713  -18.87081   10.48595
       H    10.63757  -13.78318    3.40679
       O    11.18161  -14.28564    4.04033
      H1    11.38754  -15.10943    3.53073
       H     8.82281   -9.94754    6.41819
       O     8.38503   -9.52070    5.72478
      H1     8.54578  -10.08795    4.90526
       H     6.93736  -19.82167   13.50628
       O     6.32348  -19.11683   13.32278
      H1     5.53978  -19.41566   13.81725
       H     8.58059  -14.52789    5.86247
       O     9.49273  -14.48068    6.23252
      H1    10.03535  -14.20518    5.50582
       H     8.56163  -16.88623    0.30293
       O     8.65004  -16.07399    0.78444
      H1     8.65275  -16.29120    1.71342
       H     2.89547  -14.72757    1.45981
       O     2.63391  -15.20677    2.29597
      H1     3.38473  -15.88484    2.21536
       H     8.71125  -17.85765   -1.48492
       O     7.89745  -17.94819   -0.94835
      H1     7.17704  -17.96020   -1.57182
       H     5.66997  -13.22374   11.94497
       O     6.17608  -14.00717   11.93899
      H1     6.57671  -14.00287   11.03071
       H    13.82511  -13.30471    9.34036
       O    13.50022  -12.57320    8.82605
      H1    12.63712  -12.95021    8.56161
       H     8.00235  -13.30242    2.71096
       O     7.18551  -13.33820    3.23158
      H1     6.65250  -13.89728    2.58459
       H     3.82392  -19.64291    8.92344
       O     3.73288  -18.89513    9.57462
      H1     3.96643  -18.12405    9.05031
       H    13.69275  -18.76373   -1.36957
       O    13.52682  -17.86690   -1.02301
      H1    13.39192  -18.09480   -0.08567
       H    12.72544  -13.51032   -0.26687
       O    11.93547  -13.81140   -0.70943
      H1    11.77823  -14.68870   -0.37721
       H     5.25532  -17.50049    2.98244
       O     4.87372  -17.29695    2.08913
      H1     5.40484  -16.59371    1.84748
       H     4.48529  -11.24873    8.83885
       O     3.73068  -11.87109    8.50421
      H1     4.17495  -12.72171    8.18580
       H     6.92370  -15.28927    1.05902
       O     6.08111  -14.97418    1.22585
      H1     5.66490  -14.76097    0.38914
       H     6.90947  -17.61923    9.78140
       O     7.55207  -17.10950   10.23820
      H1     7.30091  -17.18111   11.14753
       H     9.92344  -10.17131    2.45808
       O    10.25029  -10.41109    3.33560
      H1    11.22183  -10.18622    3.36322
       H     3.84376  -16.50596    7.23233
       O     3.87701  -16.44266    8.24556
      H1     3.00262  -16.18464    8.61655
       H    10.01172  -17.82466    8.25721
       O     9.87401  -18.35605    9.06230
      H1     8.98461  -18.14438    9.38249
       H     8.56124  -19.63196    3.20028
       O     7.72705  -19.21255    3.15487
      H1     7.18559  -19.63211    3.81532
       H     3.69255  -16.09535    5.20883
       O     3.55258  -16.91456    5.67159
      H1     2.60778  -16.96670    5.79182
       H     5.16801  -11.61505    5.40219
       O     4.59194  -11.87026    4.67193
      H1     5.13845  -11.82552    3.83295
       H    14.42258  -15.56336   10.83710
       O    14.59596  -14.99472    9.98856
      H1    15.44722  -14.53088   10.15681
       H     2.24790  -17.81878   11.87911
       O     2.75590  -17.11789   11.47837
      H1     3.40792  -17.64667   10.94041
       H    13.75201  -19.88041    8.33005
       O    14.40937  -19.31075    8.72400
      H1    15.19165  -19.87679    8.67511
       H    16.36849  -16.33564    4.71385
       O    15.77015  -15.89541    4.10488
      H1    15.62334  -15.01839    4.39056
       H    10.64330  -18.42190   -2.31624
       O    10.40929  -17.49611   -2.21637
      H1    10.73468  -17.19946   -3.07205
       H    13.14141  -16.02243    8.16158
       O    13.22663  -16.83693    7.72435
      H1    13.62442  -17.33031    8.44768
       H     0.17615  -16.83802    6.02600
       O     0.53291  -16.75413    5.18239
      H1     0.59769  -15.79618    5.09795
       H    10.99536  -16.83443   -0.62192
       O    11.20329  -16.32154    0.19575
      H1    10.38597  -15.91828    0.39611
       H    12.44014  -19.63532    1.49228
       O    13.03987  -18.85437    1.41309
      H1    13.96172  -19.08489    1.72796
       H     4.01972  -17.16471   -1.10682
       O     4.37095  -16.47691   -1.62449
      H1     5.08269  -16.77182   -2.11995
       H    11.24797  -17.91651    3.99459
       O    10.52133  -18.53186    4.11469
      H1    10.77525  -19.12430    4.82483
       H    14.29208  -18.39321    5.47372
       O    14.60215  -19.24096    5.84720
      H1    14.85324  -19.01472    6.75700
       H     6.48525  -14.69150    4.95228
       O     6.54644  -15.02635    5.82517
      H1     6.76557  -15.96320    5.88810
       H     1.87368  -14.76917    9.61765
       O     1.60567  -15.60802    9.27026
      H1     1.80472  -16.15589   10.05326
       H     8.52083  -17.83075    5.59912
       O     7.63500  -17.85359    6.00290
      H1     7.46042  -18.82865    6.17537
       H     3.64145  -13.32422    4.93914
       O     3.01665  -14.07018    4.89321
      H1     2.79650  -14.16996    3.95215
       H     2.08999  -17.18030    0.22874
       O     2.87398  -17.72152    0.19039
      H1     3.48796  -17.50929    0.99393
       H    13.23539  -17.10642    2.72947
       O    13.22993  -16.57010    3.47575
      H1    14.14143  -16.38296    3.77695
       H     6.56280  -14.62132    9.01906
       O     7.40634  -14.65548    9.46311
      H1     7.51214  -15.55343    9.80688
       H    16.97198  -15.98272    8.67459
       O    16.44546  -16.55996    8.11497
      H1    15.56350  -16.22021    8.30820
       H     9.88055  -11.95327    2.51449
       O     9.73652  -12.89591    2.27996
      H1     9.26370  -12.99805    1.44701
       H     8.92952  -17.22072    3.51225
       O     8.87088  -16.31024    3.29356
      H1     9.70142  -15.98664    3.73619
       H    10.18876  -16.13587    6.61091
       O    10.49211  -17.03182    6.60837
      H1    11.42106  -17.12826    6.73273
       H     5.65834  -14.69731    7.21547
       O     5.08180  -14.11352    7.74814
      H1     4.54393  -14.72743    8.26596
       H    10.22069  -12.72182    9.09721
       O    10.58408  -12.60107    8.21150
      H1     9.95351  -13.03304    7.66554
       H    10.02411   -9.11231    7.88908
       O     9.53989   -9.94519    8.02013
      H1    10.16969  -10.70051    8.10104
       H    10.08873  -19.51361   12.48891
       O     9.12981  -19.60782   12.44162
      H1     8.79410  -18.83711   12.96486

