168
frame 3 | Written by MDAnalysis XYZWriter (release 2.4.3)
       H     8.94549    4.36417   -8.69839
       O     9.27724    5.16027   -8.34571
      H1     9.20262    4.92673   -7.44346
       H     8.76306    8.58951  -12.30413
       O     8.92714    9.27467  -11.62289
      H1     9.04089    8.82829  -10.70612
       H    16.69976    8.30398   -6.13573
       O    16.44401    8.86398   -6.90030
      H1    15.53404    9.16550   -6.75060
       H    18.59319    4.25802   -9.23358
       O    18.84410    5.22122   -9.20571
      H1    18.28609    5.67941   -9.82787
       H    13.01292    4.07562   -6.25135
       O    12.82507    4.57984   -5.44879
      H1    13.04967    5.49352   -5.58793
       H    14.89633   10.74740   -4.96715
       O    15.58448   11.43536   -4.82485
      H1    15.36183   11.96763   -4.06193
       H    13.43010   12.47778  -11.43358
       O    13.95217   12.95101  -12.12969
      H1    13.68811   13.86858  -12.05297
       H    16.20339   12.53283  -12.16175
       O    17.12261   12.71688  -12.36880
      H1    17.61788   12.62249  -11.55025
       H    15.90893   10.61430   -9.88021
       O    15.81749    9.83970  -10.46374
      H1    14.89685    9.70799  -10.35690
       H    16.06502   12.99611   -9.40941
       O    15.82358   12.20661   -8.93616
      H1    16.57968   11.97078   -8.31137
       H     7.59529    9.26918   -6.03492
       O     7.42540    9.79179   -5.19018
      H1     6.49692    9.65727   -4.86217
       H    13.17978    8.48004  -15.34886
       O    13.28550    9.26442  -15.88790
      H1    13.16382    8.99936  -16.78422
       H    12.53944    5.37919  -14.12296
       O    12.86792    4.65809  -13.51630
      H1    12.59076    4.90490  -12.63699
       H    19.44128    9.85644   -8.28600
       O    19.77326    9.01334   -8.64431
      H1    18.90896    8.72342   -9.04581
       H    15.62218    5.44964   -7.05216
       O    16.02842    5.36591   -6.19666
      H1    16.79349    5.97058   -6.24539
       H    10.57364   13.49965  -11.26917
       O    10.26027   13.64347  -12.14970
      H1    10.10087   12.76952  -12.56083
       H    11.80124   10.61626  -11.59059
       O    11.94297   11.20904  -10.77725
      H1    11.35039   10.85612  -10.11739
       H    11.65470    6.17705  -16.38118
       O    12.32702    6.40129  -15.79363
      H1    13.18747    6.06757  -16.03868
       H    12.68734    9.69605  -13.20056
       O    11.69945    9.77478  -13.10240
      H1    11.47687    8.94650  -12.59558
       H     9.63266    5.02104  -13.02919
       O     9.32018    5.69814  -12.50271
      H1     9.21936    6.39063  -13.13945
       H    18.28484   11.45300   -6.72106
       O    18.09625   10.93633   -7.47060
      H1    17.61380   10.14055   -7.13488
       H     6.49984    5.72283   -9.63038
       O     6.52511    4.93984  -10.19632
      H1     5.80682    4.95168  -10.88488
       H    10.06613    8.02194   -8.64328
       O    10.05157    7.65748   -9.54444
      H1     9.44393    6.87896   -9.47005
       H    14.30058   12.11310  -15.05363
       O    13.63565   12.72779  -14.86224
      H1    13.76901   12.85752  -13.91825
       H    10.68507   11.27542   -8.17073
       O    10.65636   10.37409   -8.53756
      H1     9.79910    9.97046   -8.35566
       H     9.63298   12.68384   -6.95703
       O    10.26316   13.00912   -7.60032
      H1    11.06787   13.26985   -7.06489
       H    17.73423    3.12784  -11.56239
       O    17.00319    3.46920  -11.02803
      H1    16.31084    3.87509  -11.56759
       H     8.57999    2.84825  -10.28625
       O     9.06040    3.08804  -11.10266
      H1     8.57647    3.83877  -11.39060
       H     9.29288    8.19001   -6.32621
       O     8.75203    8.59575   -7.03028
      H1     8.19617    7.87499   -7.38440
       H    13.93470    8.45656  -11.97027
       O    14.25352    8.83197  -12.81562
      H1    15.17546    9.10464  -12.76091
       H    10.11340   11.24116  -14.05779
       O     9.33828   11.49047  -13.56001
      H1     9.32189   10.89917  -12.83676
       H    12.39726    5.23450   -2.30651
       O    11.78461    5.96995   -2.43704
      H1    12.01792    6.33903   -3.28831
       H    10.05127    4.68477   -3.91264
       O    10.23976    4.31288   -4.78692
      H1    11.20755    4.40253   -4.95636
       H     7.02379    6.17644   -7.52853
       O     6.91207    6.83008   -8.24154
      H1     6.01612    7.08607   -8.09046
       H    10.91036    5.92527  -10.90258
       O    11.79446    5.54220  -10.98419
      H1    12.40349    6.25149  -10.64404
       H     8.85797    8.20674  -15.12154
       O     9.40886    7.96817  -14.36327
      H1    10.05621    8.70409  -14.26296
       H     7.28551   10.30253  -11.21441
       O     6.34978   10.51207  -11.10878
      H1     6.32486   11.42288  -10.84273
       H    14.14285    3.56535  -14.19566
       O    14.88940    3.16259  -14.64509
      H1    14.73473    3.03457  -15.57224
       H    16.91754    8.65761   -9.81393
       O    17.51692    7.90373   -9.76069
      H1    17.56640    7.52502  -10.65861
       H    15.02674   12.56910   -6.06758
       O    14.86037   13.30278   -6.66457
      H1    14.99571   12.94893   -7.54612
       H    18.75382    6.61938   -6.22081
       O    18.06144    6.96471   -5.62078
      H1    18.45791    7.16955   -4.77456
       H    13.01208    9.76469   -6.65450
       O    13.89357    9.51578   -6.40181
      H1    13.72452    8.63980   -5.91178
       H    12.05642    1.35224   -5.83623
       O    11.60466    1.09409   -6.62851
      H1    11.53701    1.90083   -7.14553
       H    15.98047    6.92419  -15.24619
       O    16.70139    6.87041  -14.60317
      H1    16.69601    7.70037  -14.06184
       H    13.45929    3.32394   -8.21797
       O    14.01912    3.10213   -7.42714
      H1    14.31657    2.15737   -7.38535
       H    15.93401    2.88060   -7.85405
       O    16.54053    2.30095   -8.31862
      H1    16.60247    2.75757   -9.17681
       H     6.88663    6.50820  -12.24639
       O     6.31697    7.18938  -12.67145
      H1     5.71337    7.55994  -11.97268
       H    14.04137    9.23000   -2.94385
       O    14.80102    8.65427   -2.93455
      H1    14.71373    8.16736   -2.09258
       H    15.39117    6.08920  -12.78190
       O    15.38862    5.37750  -12.12104
      H1    14.52030    4.95301  -12.28287
       H    14.93214    6.28145   -5.50875
       O    14.31050    6.94609   -5.09829
      H1    14.69553    7.29877   -4.31259
       H    10.89303    4.21918   -9.20932
       O    11.48560    3.55795   -8.83093
      H1    11.69715    2.97172   -9.55861
       H    12.83568    7.91863   -9.45331
       O    13.49297    7.61947  -10.06925
      H1    14.16437    7.21114   -9.53321
       H    17.05701   10.48863  -13.07066
       O    16.91900    9.58630  -13.42290
      H1    16.62387    9.80025  -14.30177
       H    16.21587    6.62633   -8.77816
       O    15.43559    6.07993   -8.69852
      H1    15.61239    5.28687   -9.19945
       H    10.51818    6.41371   -4.92404
       O    10.36837    7.35245   -5.14449
      H1    10.45008    7.87617   -4.35963
       H    13.35055   13.63565   -6.22819
       O    12.40880   13.79865   -6.00406
      H1    12.35014   13.79128   -5.06125

