168
frame 0 | Written by MDAnalysis XYZWriter (release 2.4.3)
       H    13.42944  -12.61604    4.32844
       O    12.68761  -12.47121    3.67834
      H1    12.26242  -13.26709    3.73700
       H    17.05871  -10.89082   -4.45374
       O    16.69418  -11.13986   -5.30405
      H1    16.06413  -10.42417   -5.46965
       H    16.76045  -13.29272    0.34563
       O    16.02817  -12.79039   -0.06306
      H1    15.96638  -13.04896   -1.02265
       H     9.26236  -13.80345    0.39795
       O     8.71009  -13.65800   -0.36220
      H1     8.99849  -12.77521   -0.74656
       H    11.03987  -15.60562    4.35287
       O    11.91609  -15.24847    4.64610
      H1    12.47956  -16.01656    4.68562
       H    17.15597  -11.63367   -0.33617
       O    17.88278  -11.10834   -0.71384
      H1    18.75126  -11.21390   -0.22978
       H    13.33235  -11.01266    0.73359
       O    12.88502  -10.20050    0.84893
      H1    12.04851  -10.29688    0.46666
       H    12.54887  -14.13271   -2.11010
       O    12.81367  -14.49067   -2.99443
      H1    13.21526  -15.35486   -2.92358
       H    17.25766   -9.52996   -0.00490
       O    17.28958   -8.96834    0.77296
      H1    16.67159   -9.34757    1.38205
       H    13.38313  -12.61746    2.06202
       O    13.39415  -12.82298    1.11655
      H1    14.30137  -13.25486    1.05745
       H    16.75958  -11.42079    3.58374
       O    16.09859  -11.09198    4.19264
      H1    15.51634  -10.54285    3.64489
       H     7.89087  -11.07406   -1.73419
       O     8.79885  -11.31735   -1.82930
      H1     9.12918  -10.89808   -2.63756
       H    14.99022  -13.28701    6.20662
       O    14.89155  -13.15269    5.26122
      H1    15.43145  -12.34254    5.04926
       H    13.83715  -11.84451   -4.77463
       O    14.16928  -12.66728   -4.39369
      H1    13.42583  -13.23309   -4.28840
       H    14.12374   -9.31413    1.91104
       O    15.01221   -9.32978    2.23956
      H1    15.14723   -8.54133    2.75786
       H    18.66729  -17.43736    2.12149
       O    17.85239  -17.85373    2.38660
      H1    17.17602  -17.59165    1.79593
       H    11.94992   -9.31905    4.47448
       O    12.26560   -9.54956    3.58920
      H1    12.53723  -10.46361    3.60907
       H    16.78802  -16.11478   -5.67797
       O    17.03866  -16.96603   -5.28008
      H1    16.34927  -17.54731   -5.58216
       H    10.10944   -9.09549    0.01846
       O    10.54591   -9.97883   -0.12868
      H1     9.91712  -10.38331   -0.73735
       H    17.02090   -7.29250    3.99181
       O    16.13166   -7.78215    3.98245
      H1    16.07931   -8.08753    4.87314
       H    13.78893  -18.00643   -2.68889
       O    13.86092  -17.20409   -2.18009
      H1    13.20333  -17.22459   -1.45392
       H    12.13575  -13.56419   -0.10336
       O    11.43408  -13.78621   -0.70303
      H1    10.91320  -14.52794   -0.41513
       H    13.17017   -8.91129   -0.35984
       O    13.49058   -8.13678   -0.84289
      H1    14.44591   -8.21079   -1.00327
       H     9.85423  -10.56945    1.98645
       O     9.73776  -10.46644    2.92444
      H1    10.63744  -10.18060    3.19934
       H     9.49186   -7.75127   -1.08750
       O     9.49053   -7.85295   -2.01688
      H1    10.21383   -8.48640   -2.17389
       H    12.46481   -8.44326   -2.28945
       O    11.92811   -8.94428   -2.95427
      H1    11.95430   -9.86694   -2.74773
       H    11.57216  -18.01457   -5.77672
       O    12.10484  -17.80435   -5.05461
      H1    12.85748  -17.30142   -5.51909
       H    13.41272  -15.33118   -6.24156
       O    14.16347  -15.88573   -6.49196
      H1    14.18966  -15.86674   -7.44381
       H    16.19333  -14.60045   -2.55941
       O    16.18573  -13.62599   -2.56235
      H1    15.41925  -13.36497   -3.08516
       H    12.27238  -10.03876   -6.03303
       O    12.98552  -10.15759   -5.37848
      H1    12.82779   -9.60710   -4.59702
       H    15.61428  -14.60631   -6.02132
       O    16.25572  -13.89807   -6.24171
      H1    16.12790  -13.22240   -5.57397
       H    18.94270  -10.94833    5.90359
       O    18.64466  -10.24076    5.27865
      H1    17.67022  -10.38204    5.21811
       H    13.77837   -8.89128   -5.98910
       O    14.45464   -8.23692   -6.30112
      H1    14.16316   -7.33172   -6.05476
       H    19.00076   -8.81004    1.16839
       O    19.77387   -8.49255    1.72353
      H1    20.19836   -7.81850    1.09218
       H    15.96629  -15.81751    3.62301
       O    15.50241  -15.03541    3.29832
      H1    15.37703  -14.55933    4.12491
       H    11.12173  -19.00022   -2.04100
       O    10.73602  -18.41718   -2.72082
      H1    11.41456  -18.35877   -3.40021
       H    13.01808   -5.26833   -0.12298
       O    13.57827   -5.77546    0.48635
      H1    13.65891   -6.60607   -0.01867
       H    11.90835  -13.99992   -4.67135
       O    11.80089  -14.08877   -5.66528
      H1    11.65455  -13.18978   -5.90883
       H    11.35800  -16.76438    0.87639
       O    10.48425  -16.41350    1.02454
      H1    10.48224  -16.54204    1.95508
       H    13.04869  -18.24142    1.11328
       O    12.93553  -17.62540    0.41643
      H1    13.82148  -17.46548   -0.01714
       H    18.85032   -7.17189    2.69604
       O    18.53070   -6.72918    3.55702
      H1    18.35184   -5.83398    3.26724
       H    18.27557  -13.58550   -5.87236
       O    19.12471  -14.02749   -5.80936
      H1    19.13527  -14.70186   -6.50156
       H    18.29926   -8.66312   -3.60987
       O    18.21605   -7.72128   -3.50572
      H1    18.98573   -7.20976   -3.25987
       H    18.16962  -15.32833    1.34985
       O    17.29816  -15.02506    1.03472
      H1    16.75141  -14.89339    1.77491
       H    19.18025  -13.54629   -4.05488
       O    18.99121  -12.91983   -3.28238
      H1    18.06928  -13.09789   -3.01723
       H    17.50657  -16.69050    5.40050
       O    17.79994  -16.30134    4.59146
      H1    17.57650  -16.97719    3.90701
       H    18.48315  -10.91338   -7.87801
       O    18.59004  -11.79589   -7.36865
      H1    17.95982  -11.67474   -6.68212
       H    16.45543  -16.61611    0.33022
       O    15.94608  -17.40692    0.40475
      H1    16.17005  -18.02056   -0.33010
       H    13.65291  -17.96612    3.43772
       O    14.07470  -17.24617    4.02462
      H1    14.23779  -16.50711    3.43231
       H    16.46708   -7.68457   -6.46959
       O    17.40026   -7.69770   -6.36220
      H1    17.63735   -7.72773   -5.40660
       H    16.61571   -7.51059   -2.31493
       O    16.11407   -7.76936   -1.50353
      H1    16.84492   -7.85226   -0.83006
       H     9.73325  -12.46992    2.70667
       O     9.44539  -13.37539    2.51186
      H1     8.59818  -13.20503    2.06272
       H    17.04113  -16.58481   -3.59477
       O    16.72783  -16.48804   -2.67892
      H1    15.84185  -16.90759   -2.64172
       H    17.99204  -17.99076   -1.67526
       O    18.81910  -17.82432   -1.19724
      H1    19.37601  -18.57964   -1.34016
       H    12.64965  -11.99803   -2.68089
       O    11.79578  -11.59370   -2.26651
      H1    11.52302  -12.42884   -1.82837
       H    18.97692  -10.96322   -3.45110
       O    18.21919  -10.33482   -3.31191
      H1    17.99881  -10.60919   -2.43468

