168
frame 2 | Written by MDAnalysis XYZWriter (release 2.4.3)
       H     2.13324   19.18852   -7.80192
       O     2.35840   18.70326   -8.56199
      H1     2.98066   18.03732   -8.26917
       H     4.77616   17.10435  -13.92581
       O     4.15202   17.37103  -14.60441
      H1     3.28251   17.58286  -14.14039
       H    -2.97378   17.74822   -3.06572
       O    -3.56530   17.45195   -2.34080
      H1    -3.32592   18.00654   -1.59217
       H    -4.86443   13.38831  -11.06236
       O    -5.44261   13.27378  -11.81515
      H1    -5.29638   12.37209  -12.12922
       H    -1.21098   15.31251   -2.61605
       O    -1.88382   15.18381   -1.93549
      H1    -2.41604   15.99540   -1.93207
       H    -2.99242   17.54258  -13.71739
       O    -2.81220   18.44903  -13.92009
      H1    -2.36954   18.42282  -14.80366
       H    -4.51496   18.88218  -13.80129
       O    -5.45949   19.12638  -13.79485
      H1    -5.74239   19.01235  -12.85764
       H     1.02245   13.45609   -7.13828
       O     1.84795   13.04758   -6.94913
      H1     2.48035   13.77314   -6.67255
       H     7.30478   16.13208  -13.21039
       O     6.42267   16.53312  -13.29686
      H1     6.44933   17.04436  -12.45819
       H     3.27490   15.96388  -15.94971
       O     2.81281   15.45647  -16.59894
      H1     2.23970   16.15387  -16.93442
       H     2.16368   14.34023  -10.72571
       O     2.51421   14.76928   -9.93805
      H1     1.77068   15.02089   -9.40555
       H     3.34828   12.51558  -11.35132
       O     3.71293   11.97182  -10.60962
      H1     2.90596   11.96836  -10.07329
       H     7.08584   13.66042   -6.37832
       O     7.69384   13.31681   -5.65111
      H1     7.54926   12.35808   -5.58664
       H     0.48627   15.24777  -13.01816
       O    -0.33957   15.61906  -13.23071
      H1    -0.23018   15.69941  -14.18221
       H    -2.38209   18.12056   -5.27115
       O    -1.74317   17.56015   -4.81552
      H1    -0.96910   18.06211   -4.58019
       H    -1.17351   12.24147  -13.81531
       O    -0.83457   12.78606  -13.10777
      H1    -1.32274   13.63566  -13.22984
       H     5.89218   15.98301   -8.72056
       O     6.66936   15.97397   -9.28574
      H1     7.29787   15.36378   -8.94135
       H     2.55677   16.54325   -1.08046
       O     2.57339   16.75199   -1.99661
      H1     2.41974   17.68395   -1.99171
       H     0.13256   16.46822   -8.08919
       O     0.55751   16.65563   -8.91904
      H1     1.10100   17.45817   -8.81744
       H    -3.88977    9.68264   -9.31456
       O    -4.23160   10.40566   -8.83472
      H1    -3.52184   11.09435   -8.68404
       H     2.48932   18.51780  -12.43481
       O     3.13392   18.76703  -11.72504
      H1     2.56737   18.72938  -10.91810
       H    -1.08225   12.70257   -6.16449
       O    -1.10301   13.18181   -7.00083
      H1    -1.91242   12.89822   -7.51086
       H     0.94308   17.28263  -13.38780
       O     1.63271   17.80395  -13.73109
      H1     1.27171   18.33513  -14.46933
       H    -6.42906   19.01955   -9.34400
       O    -7.29594   18.86977   -9.80594
      H1    -7.30916   17.86831   -9.79557
       H     4.54048   17.76632   -7.10955
       O     4.39705   17.16694   -7.86561
      H1     4.19260   16.35493   -7.46666
       H    -6.12916   16.57555  -12.70609
       O    -6.98499   16.34711  -13.17327
      H1    -7.05901   16.65093  -14.10000
       H     0.11011   11.75103  -10.27367
       O    -0.75503   11.86155  -10.66194
      H1    -0.52991   12.31013  -11.49470
       H    -4.94422   15.83231   -5.06342
       O    -5.77641   16.31838   -5.18029
      H1    -6.08216   16.55843   -4.24072
       H     5.82187   17.46413  -10.59200
       O     6.02717   18.26870  -11.14785
      H1     5.15230   18.42813  -11.63600
       H     2.67752   12.11240   -5.06146
       O     3.27646   11.42744   -4.72893
      H1     2.67578   10.94147   -4.16745
       H     1.62272   10.72514   -9.13640
       O     1.55362   11.65744   -9.22068
      H1     1.61570   12.09310   -8.35655
       H     7.94747   12.95483  -10.20499
       O     7.03604   12.84440   -9.92175
      H1     6.61566   13.47793  -10.50597
       H     3.62048   12.04025  -14.79928
       O     3.69298   12.75415  -14.10999
      H1     4.36969   12.41670  -13.51240
       H    -0.20159   10.24841   -5.56529
       O    -0.17146    9.42736   -6.08512
      H1    -1.02546    9.18913   -6.39834
       H     3.74605   16.11908   -3.09381
       O     4.52350   15.93337   -3.69178
      H1     4.77223   15.04624   -3.49505
       H    -3.20310   15.70467  -16.10662
       O    -2.41564   15.53369  -15.60096
      H1    -2.69984   15.42350  -14.67045
       H     5.15475   19.86277   -6.10229
       O     4.51738   19.22050   -5.81907
      H1     3.76741   19.78979   -5.58891
       H     5.74833   15.13825  -12.31813
       O     5.39118   14.48046  -11.71276
      H1     4.69763   14.87210  -11.19432
       H     6.08304   18.05258   -5.25383
       O     6.92283   17.82091   -4.94685
      H1     7.55417   18.03188   -5.63598
       H     0.98755   15.84905   -3.20499
       O     0.31039   15.22949   -3.61859
      H1     0.17347   15.47170   -4.56210
       H     4.10825   15.01485   -5.46067
       O     3.83527   14.86350   -6.36316
      H1     4.51567   14.25301   -6.70259
       H    -1.19053   16.28534   -5.93468
       O    -0.47268   15.75558   -6.40397
      H1    -0.89484   14.87057   -6.61621
       H    -4.06933   19.07319   -5.74902
       O    -4.01231   18.25393   -6.26639
      H1    -4.73918   17.72548   -5.90417
       H     2.39884   13.31863  -12.97349
       O     1.68161   13.62650  -12.36897
      H1     0.82441   13.37572  -12.68251
       H     6.22190   13.35672   -8.40349
       O     5.81223   13.23532   -7.51342
      H1     5.54902   12.32511   -7.55391
       H    -3.77440   15.26403   -7.71862
       O    -3.97963   15.13263   -8.66718
      H1    -3.33398   15.73283   -9.13342
       H    -2.00789   16.00205  -12.75565
       O    -2.95211   15.94488  -13.00933
      H1    -3.55568   15.92860  -12.24383
       H    -0.98903    9.86340  -13.43877
       O    -1.46218    9.69015  -12.53073
      H1    -1.25567   10.49417  -12.08634
       H     0.11070   12.64320   -4.25947
       O    -0.47595   11.94609   -4.47651
      H1    -0.73907   11.54305   -3.66155
       H    -4.05241   13.74626   -4.91679
       O    -3.47418   14.57782   -4.82113
      H1    -3.11241   14.53840   -3.93996
       H     2.43811    9.83387  -11.68415
       O     2.44769    9.37359  -12.54000
      H1     1.81073    8.69810  -12.44490
       H     1.41026    8.61731   -8.46127
       O     1.48034    8.99009   -9.33305
      H1     2.37948    8.71166   -9.53370
       H    -2.02770   12.87327   -9.41113
       O    -2.80514   12.67674   -8.89803
      H1    -3.27773   13.49081   -8.80445
       H    -4.95566   16.01687  -10.66902
       O    -5.02718   16.71128  -11.34205
      H1    -5.13241   17.46215  -10.75252
       H    -4.62053   20.27591   -8.40597
       O    -4.61007   19.30748   -8.61727
      H1    -4.38076   18.84163   -7.76821
       H    -1.18138   16.48472   -9.81504
       O    -2.09420   16.63852   -9.91251
      H1    -2.24567   17.57177   -9.64003

