168
frame 8 | Written by MDAnalysis XYZWriter (release 2.4.3)
       H    -3.60744  -15.66906  -11.90256
       O    -4.53837  -15.39147  -11.69023
      H1    -4.57186  -14.41539  -11.88811
       H     7.74155   -8.36354  -12.41110
       O     7.31310   -9.17662  -12.09085
      H1     7.84362   -9.91408  -12.35676
       H    -0.19181  -11.80596   -6.87167
       O    -0.60917  -12.70517   -6.81184
      H1    -1.28373  -12.68381   -6.12229
       H     7.13638   -9.09886  -10.33655
       O     6.73387   -9.05260   -9.42854
      H1     7.40550   -8.64341   -8.91677
       H    -4.69574  -11.83666  -15.02603
       O    -4.73446  -12.73680  -14.60099
      H1    -4.27222  -13.34571  -15.25601
       H    -1.62099  -10.27596  -13.55125
       O    -1.07764   -9.50113  -13.35092
      H1    -1.07014   -9.07583  -14.23497
       H     3.13240   -4.56757  -10.58849
       O     2.63045   -4.59926  -11.37538
      H1     1.87024   -5.18605  -11.38603
       H     5.78349  -13.58951  -12.89172
       O     4.85259  -13.43039  -13.04591
      H1     4.80504  -12.51588  -13.37686
       H     0.16781   -3.84012   -9.98374
       O    -0.26393   -2.99248  -10.02013
      H1    -0.87236   -3.03329   -9.21081
       H    -1.55991   -5.84997   -8.84349
       O    -2.33260   -6.42536   -9.06863
      H1    -2.98426   -5.86688   -9.55224
       H    -2.28022  -11.51973  -17.99561
       O    -1.67212  -12.19055  -17.60152
      H1    -1.02189  -12.48375  -18.27347
       H     3.82957  -11.26719  -15.27130
       O     3.68274  -11.42419  -16.19645
      H1     2.77468  -11.79759  -16.25156
       H     2.88362   -9.86229   -9.33943
       O     2.65762   -9.00623   -9.71868
      H1     3.37729   -8.45689   -9.34885
       H     0.44343   -6.24236   -9.34115
       O     0.22443   -5.39111   -8.93489
      H1     0.85670   -5.21754   -8.27343
       H    -1.57477  -16.62242  -12.52897
       O    -1.92896  -16.94121  -11.64040
      H1    -1.16651  -17.03277  -10.99032
       H    -5.53364   -9.00348  -11.55499
       O    -5.86250   -9.60179  -10.91226
      H1    -5.25152   -9.61194  -10.18548
       H     2.74736   -9.38766  -16.01359
       O     3.03896   -8.47051  -15.99370
      H1     3.97061   -8.47927  -15.63541
       H     0.75393  -15.71884  -15.57271
       O     1.22812  -15.26364  -16.27323
      H1     2.06958  -14.99629  -15.91313
       H     3.03038  -11.67409   -7.60954
       O     2.86997  -11.53002   -8.56339
      H1     1.99889  -11.85396   -8.71939
       H    -5.37213  -12.31689  -13.02431
       O    -5.37479  -12.64520  -12.08675
      H1    -5.56769  -11.82773  -11.60923
       H    -2.31265   -5.56129  -15.68426
       O    -2.54540   -5.32354  -16.59465
      H1    -2.90593   -4.45409  -16.59375
       H    -2.68895  -13.31157  -16.91606
       O    -3.42194  -13.93313  -16.85058
      H1    -3.04793  -14.78333  -16.63302
       H    -1.82417  -14.08922   -9.57466
       O    -1.20275  -14.00783  -10.33875
      H1    -0.56344  -13.29941   -9.99763
       H     0.84257  -13.61298  -16.41030
       O     0.82123  -12.67722  -16.29719
      H1    -0.03742  -12.31492  -16.55874
       H     2.16889   -8.41412   -7.87498
       O     1.83105   -8.05117   -6.99618
      H1     1.42240   -8.74603   -6.45221
       H     0.29260  -16.43515  -13.55025
       O    -0.37193  -15.76257  -13.71864
      H1     0.08883  -14.90395  -13.51558
       H    -0.55540   -6.26493  -12.13108
       O     0.40572   -6.14188  -12.22822
      H1     0.56650   -6.69775  -12.99214
       H     0.74643  -11.56053  -10.44041
       O     0.35173  -11.99209   -9.72287
      H1    -0.13843  -11.28231   -9.28727
       H     3.27676   -9.06275  -18.76756
       O     2.54914   -9.55056  -19.15776
      H1     2.41829   -9.34090  -20.09737
       H    -5.31030   -9.96549  -15.16281
       O    -4.46472  -10.09549  -15.62301
      H1    -3.81830   -9.58595  -15.05500
       H     4.05810  -15.11752  -15.73321
       O     3.57975  -15.18259  -14.85349
      H1     4.09212  -14.59988  -14.22947
       H     5.81699   -8.59911  -14.05636
       O     5.98427   -8.22492  -14.90084
      H1     6.06159   -7.28234  -14.84047
       H     4.01427   -7.92365  -17.42228
       O     4.51982   -7.68332  -18.18879
      H1     5.38301   -7.94070  -17.92353
       H     4.50936  -12.62653  -18.68684
       O     5.31074  -12.78688  -18.13150
      H1     4.97125  -12.36923  -17.33725
       H    -2.35544  -13.09226   -7.71609
       O    -2.96935  -13.48960   -8.28701
      H1    -3.71145  -12.81134   -8.38472
       H    -2.01665   -9.89026   -8.82319
       O    -1.22229  -10.22558   -8.42009
      H1    -1.47567  -10.08038   -7.44374
       H     4.54452  -10.23223  -12.88239
       O     4.13169  -10.84265  -13.54217
      H1     3.18007  -10.95107  -13.22239
       H    -3.24218  -12.36768  -12.80297
       O    -2.26540  -12.33723  -12.69592
      H1    -2.15591  -12.85145  -11.90198
       H    -4.31911   -4.59093  -11.04557
       O    -4.60174   -5.24593  -10.33859
      H1    -4.67803   -6.10071  -10.77375
       H    -3.67011   -7.36378  -12.46619
       O    -4.67275   -7.39067  -12.57044
      H1    -4.83059   -6.73651  -13.27675
       H     0.83325   -9.15487  -18.84455
       O    -0.03719   -8.84787  -18.53539
      H1    -0.70537   -9.41347  -18.93554
       H     3.65282   -8.49417  -11.48736
       O     4.39079   -8.53526  -12.18601
      H1     5.15198   -8.08958  -11.74024
       H     4.81256   -5.84316  -12.83005
       O     5.38238   -5.18718  -13.23986
      H1     5.46585   -5.26524  -14.18578
       H    -0.96741   -2.80449  -11.56315
       O    -1.46042   -2.72482  -12.38535
      H1    -1.52077   -3.56787  -12.76696
       H     2.49015  -14.35466   -9.85248
       O     1.84668  -14.95645   -9.45070
      H1     0.98983  -14.81553   -9.90987
       H     4.07446  -12.63413   -9.80422
       O     4.23409  -13.43083  -10.30473
      H1     4.25450  -13.32130  -11.28907
       H     0.08777   -7.31844   -7.06746
       O    -0.72662   -6.96814   -6.68775
      H1    -1.35443   -7.08201   -7.37776
       H     1.61809   -7.67420  -15.49098
       O     0.88845   -7.25777  -15.01134
      H1     0.88340   -6.30312  -15.27565
       H     1.57151   -4.28668  -15.42491
       O     0.68898   -4.57735  -15.68679
      H1     0.20572   -3.96423  -16.24615
       H     0.31941  -12.98401  -14.51101
       O     0.31146  -13.15963  -13.56172
      H1    -0.60583  -12.84092  -13.37521
       H    -3.60018   -8.44907   -8.89815
       O    -3.66461   -9.40907   -9.10649
      H1    -3.85764   -9.89836   -8.29648
       H    -2.10971   -7.25489  -10.95215
       O    -2.01999   -7.31325  -11.92159
      H1    -1.61581   -8.18007  -12.04898
       H    -1.66573   -5.93879  -13.66833
       O    -1.77462   -5.00584  -13.93110
      H1    -0.97421   -4.95387  -14.49613
       H     4.62415   -6.73512   -8.83160
       O     4.77290   -7.42843   -9.47521
      H1     5.50387   -8.03181   -9.35267
       H    -1.20614   -8.91686  -16.75545
       O    -1.34688   -8.39723  -15.95460
      H1    -0.57306   -7.85901  -15.83460
       H     0.87416  -11.63021  -12.85964
       O     1.17390  -10.84430  -12.30576
      H1     0.67017  -10.04950  -12.61836

