168
frame 4 | Written by MDAnalysis XYZWriter (release 2.4.3)
       H    16.03257   12.96770    3.66719
       O    15.93162   12.86142    2.70382
      H1    16.80013   12.90675    2.33433
       H     9.32184   18.48959   11.51437
       O     8.85860   17.91452   10.80945
      H1     8.00128   17.67645   11.16595
       H    19.39237   12.37296    2.04445
       O    18.65246   12.78988    2.38967
      H1    18.36036   12.36348    3.19729
       H    13.58457   20.19113   11.76665
       O    14.17216   19.42471   11.69923
      H1    13.66724   18.84763   11.08570
       H    12.85202   19.39149   14.93349
       O    12.58946   18.83608   14.19201
      H1    13.20856   19.04011   13.48222
       H    14.62811   15.85669    2.70322
       O    14.71654   15.27657    1.93356
      H1    15.36741   14.55631    2.12803
       H    18.53724   15.09390    2.73382
       O    18.78437   15.63155    1.93904
      H1    18.07324   16.21642    1.72818
       H    10.51193   18.91683    0.67663
       O    11.38317   19.05430    1.19046
      H1    11.26989   19.57474    1.99301
       H    17.84681   18.64525   13.89500
       O    18.28372   17.80610   13.76597
      H1    19.22398   17.91610   13.55767
       H    18.22896   11.20951   11.35830
       O    18.70881   11.44853   12.18080
      H1    18.91427   10.70175   12.72529
       H    12.25329   11.64527    9.05334
       O    11.34089   11.29801    8.99040
      H1    10.87973   11.87994    9.68880
       H    14.67227   16.40961    7.61802
       O    14.95567   16.90458    8.40886
      H1    15.75091   16.42745    8.75698
       H    15.41212   10.25858    9.35069
       O    15.45758    9.91851   10.23914
      H1    15.50105    8.98110   10.10135
       H     9.74242   20.15974    8.83948
       O     9.18592   19.42039    8.54977
      H1     9.15625   18.84603    9.35119
       H    13.77199   10.31468   11.05367
       O    13.03774   10.74627   11.51638
      H1    12.28035   10.49604   10.91211
       H    12.66197   17.76215    2.23115
       O    12.55565   17.02562    2.79928
      H1    12.05928   17.50026    3.49476
       H    16.04833   17.23223    0.45530
       O    16.68114   17.91738    0.50888
      H1    17.00059   18.17863   -0.34390
       H    10.12429   16.62672   10.63574
       O    10.71424   15.95472   10.44809
      H1    11.62032   16.33372   10.64728
       H    17.91286    9.26970    2.16586
       O    18.23561    9.65312    2.99059
      H1    18.89567    9.05053    3.37859
       H    11.19567   16.77778    8.66977
       O    11.34127   17.53490    8.13897
      H1    10.60754   18.16184    8.31628
       H    17.09132    9.37968    4.42795
       O    16.52637    9.38726    5.21075
      H1    16.25487    8.50035    5.38494
       H    17.08965   14.51936    9.19141
       O    17.06248   15.45628    9.39773
      H1    16.87335   15.44183   10.30665
       H    11.03996   14.89590   14.16541
       O    11.11319   13.95855   14.51905
      H1    11.57239   13.46693   13.83664
       H    17.36647   11.03525    5.55726
       O    17.56577   11.96444    5.73585
      H1    18.43314   11.89500    6.14726
       H    13.27487   16.63764    5.71027
       O    14.18366   16.76029    5.76686
      H1    14.29341   17.71963    5.63836
       H    14.19723   16.16808    0.52720
       O    14.15089   16.80812   -0.18689
      H1    13.22506   16.79870   -0.47532
       H    10.08843   14.45350    5.70552
       O    10.52330   13.58827    5.42667
      H1    11.42844   13.61577    5.79483
       H    17.38443   18.43273    5.32708
       O    17.25694   18.19025    4.43640
      H1    16.32692   18.37084    4.20700
       H    16.95956   17.05541   16.88273
       O    16.51056   17.87605   17.09277
      H1    15.61889   17.57764   17.04318
       H    17.42682   12.12648    8.73755
       O    16.88952   12.85156    8.30613
      H1    16.94685   12.65939    7.37135
       H    14.17170   13.08452    5.97537
       O    13.25180   13.01163    5.79162
      H1    13.11061   12.10162    5.57232
       H    18.33459   14.21241   13.57921
       O    17.66718   13.47672   13.58001
      H1    18.21667   12.71176   13.19520
       H    14.55925   10.65998   14.20158
       O    14.23296    9.79061   13.89923
      H1    13.58535   10.03065   13.20892
       H    12.62739   18.82261    8.11688
       O    13.46449   19.33577    8.11760
      H1    14.05231   18.55484    8.11423
       H    17.33343   19.41491    7.63664
       O    18.01949   18.94390    7.18038
      H1    18.72573   19.58676    6.83076
       H    18.13769    8.78455   14.18881
       O    18.95390    8.88831   13.62918
      H1    19.68500    8.91260   14.21803
       H    15.04767   12.09342    8.49853
       O    14.42504   11.42133    8.35470
      H1    14.48529   11.12183    7.46038
       H    17.33168   14.24384   15.76232
       O    17.52304   14.97151   16.41026
      H1    16.77486   14.97695   17.01563
       H    13.51974    9.33384    6.56796
       O    13.99096    9.94277    6.00445
      H1    14.85269    9.59326    5.80330
       H    11.65854   19.78432    4.70582
       O    10.90355   19.35821    4.27903
      H1    10.93392   18.49924    4.74737
       H    13.80411   19.90071    4.43737
       O    13.89587   19.30727    5.20557
      H1    13.68411   19.87863    5.91115
       H    15.19608   16.01260   12.91625
       O    14.30394   15.78778   13.14892
      H1    14.12842   14.97635   12.70821
       H    11.40845   17.19638    6.37968
       O    11.51067   16.73244    5.51128
      H1    10.69663   16.29171    5.32799
       H    19.13972   14.17645   17.74583
       O    19.27280   13.36037   18.26070
      H1    19.96612   13.52863   18.86453
       H    10.17881   13.98247   10.59061
       O    10.34245   13.01824   10.87429
      H1     9.49586   12.67710   11.18221
       H    18.40520    9.90062    9.43584
       O    17.95814   10.73954    9.81366
      H1    17.04236   10.52998   10.06727
       H    17.85628   16.63753    4.70445
       O    18.36755   15.75495    4.69677
      H1    19.15862   15.91208    5.19014
       H    18.51816   16.31648    8.96836
       O    19.25248   16.80646    8.65752
      H1    18.90120   17.61887    8.31313
       H    13.78481   16.45927   11.53903
       O    13.34573   16.86999   10.79643
      H1    13.87527   16.73730   10.03415
       H    14.25534   16.41394   15.12655
       O    13.98712   16.72802   16.03287
      H1    13.28626   17.35201   15.80809
       H    15.37170   15.25209    5.08184
       O    15.83275   14.41124    5.13627
      H1    16.77676   14.67848    4.97919
       H    15.93865   12.54851   14.82603
       O    15.25836   12.02188   15.23695
      H1    14.59231   12.67012   15.58122
       H    12.12874   13.61409   11.77437
       O    12.94201   13.55857   12.32402
      H1    12.99396   12.57873   12.17141
       H    13.10807   13.50089    1.95661
       O    12.56872   12.78263    1.64470
      H1    12.59784   12.09286    2.30869
       H    10.24071   16.70713   13.22385
       O    10.91588   16.64381   13.87091
      H1    11.70554   16.99431   13.44411
       H    17.05624   16.91898   12.61354
       O    16.70972   16.10210   12.13167
      H1    17.12119   15.41867   12.60143

