168
frame 11 | Written by MDAnalysis XYZWriter (release 2.4.3)
       H    -8.28579  -18.00980   -9.54562
       O    -8.59546  -18.62287  -10.28218
      H1    -7.91798  -18.38796  -10.95712
       H    -4.64135  -16.50431   -9.99689
       O    -5.46201  -16.50401  -10.56395
      H1    -5.54959  -17.42088  -10.85208
       H     0.96935  -16.88681   -9.88350
       O     0.59153  -17.71785  -10.16430
      H1     1.10092  -18.03353  -10.88385
       H    -8.27920  -18.88887  -14.64696
       O    -8.32792  -17.89941  -14.50034
      H1    -7.50608  -17.62481  -14.04543
       H    -4.21480  -13.81376  -13.93265
       O    -4.23606  -13.80708  -13.01831
      H1    -3.58950  -14.50222  -12.74808
       H    -0.41783  -18.97415  -15.43164
       O     0.53019  -18.75632  -15.48090
      H1     0.89403  -19.63537  -15.18802
       H     8.66095  -19.97488  -17.96801
       O     8.29819  -19.92692  -17.02128
      H1     8.56361  -19.08188  -16.70819
       H     4.00160  -16.98457  -17.65368
       O     3.45680  -16.21855  -18.01153
      H1     2.49812  -16.44441  -17.89392
       H     4.59212  -12.93109  -13.65829
       O     3.70881  -12.82028  -13.20111
      H1     3.40876  -11.90765  -13.24566
       H    -4.26722  -17.85668  -13.62965
       O    -4.97098  -17.20675  -13.38507
      H1    -4.66553  -16.70779  -12.60945
       H     2.62045  -18.79435  -16.17843
       O     3.27470  -18.81448  -16.91918
      H1     4.05537  -19.16357  -16.52059
       H    -3.00053  -14.85259  -18.10168
       O    -2.78450  -13.94456  -18.32607
      H1    -2.16916  -14.01333  -19.05113
       H     3.71085  -11.56252  -17.70156
       O     3.01106  -11.15778  -18.24286
      H1     2.18277  -11.61345  -18.17846
       H    -5.44939  -17.83734  -16.01829
       O    -5.50617  -16.84542  -16.06557
      H1    -5.23611  -16.55397  -15.14558
       H     6.42000  -17.95252   -9.85012
       O     6.09020  -17.01172   -9.97033
      H1     5.19696  -17.12736   -9.78555
       H    -2.26859  -16.86859  -10.84940
       O    -2.73226  -17.72124  -10.52651
      H1    -2.29078  -17.85755   -9.64901
       H    -7.23834  -19.98257  -18.33265
       O    -7.41871  -19.24007  -17.79178
      H1    -7.29843  -18.59344  -18.49501
       H    -0.95107  -14.36662  -15.62037
       O    -0.55694  -15.21371  -15.87813
      H1    -0.26785  -15.61798  -15.04283
       H     0.11079  -16.36445  -17.36564
       O     0.66194  -16.98930  -17.80101
      H1     0.93001  -17.61836  -17.09253
       H     0.41371  -17.55364  -13.88140
       O     0.40060  -16.66478  -13.45804
      H1     1.33695  -16.39992  -13.26543
       H    -2.50270  -18.37863  -18.58391
       O    -2.98736  -18.87324  -19.23378
      H1    -2.32376  -19.47468  -19.58364
       H    -6.76168  -13.23865  -12.98578
       O    -7.63271  -13.43972  -13.39917
      H1    -8.22845  -13.12791  -12.70354
       H     3.71079  -19.17066  -12.12720
       O     3.12805  -18.40812  -12.10928
      H1     3.12588  -17.99980  -12.97386
       H    -3.78063  -13.68147  -16.28834
       O    -4.28002  -14.11371  -15.62995
      H1    -5.13518  -13.66429  -15.72121
       H    -1.51628  -13.72394   -9.44202
       O    -0.93185  -13.62554  -10.20370
      H1    -0.45863  -12.73849  -10.23142
       H    -0.77430  -12.97176  -18.06111
       O    -0.16579  -12.25063  -17.90945
      H1    -0.63514  -11.49628  -18.15873
       H     5.40541  -18.87874  -15.10907
       O     5.66654  -19.69415  -15.52407
      H1     6.31633  -19.61509  -16.21655
       H     7.56621  -15.80519  -12.55598
       O     6.95973  -15.24528  -12.03426
      H1     6.71203  -15.76922  -11.27277
       H     3.82860  -18.48616   -8.97849
       O     4.24013  -19.24209   -8.51722
      H1     4.24241  -19.13125   -7.52681
       H    -3.54198  -12.33789  -19.11247
       O    -4.39819  -11.89541  -19.32677
      H1    -4.33036  -11.05513  -18.90088
       H    -1.01837  -15.76263  -12.39121
       O    -1.83205  -15.41293  -12.01013
      H1    -1.57069  -14.75679  -11.39925
       H     0.34017  -11.27330  -11.40351
       O     0.56626  -11.36415  -10.45731
      H1     0.08473  -10.71158   -9.88717
       H    -4.12018  -11.19810  -16.12014
       O    -3.22431  -10.90838  -15.83437
      H1    -3.15244  -10.00002  -16.07245
       H     2.48172  -15.54849  -14.38023
       O     2.67652  -15.33440  -13.47188
      H1     2.96027  -14.42192  -13.60866
       H     3.05975  -17.32215  -10.61999
       O     3.46463  -17.19625   -9.75228
      H1     2.85525  -16.63788   -9.19736
       H    -2.41985  -16.20516  -16.70608
       O    -3.03264  -16.52864  -17.35863
      H1    -3.92437  -16.53412  -16.90550
       H    -0.40352  -18.63804   -8.84495
       O    -1.15836  -18.70048   -8.25161
      H1    -1.46223  -19.64380   -8.33953
       H    -3.40033  -12.44015  -11.95318
       O    -3.04137  -11.57732  -11.73181
      H1    -2.07472  -11.74843  -11.92754
       H    -1.66366  -20.20848  -12.09733
       O    -0.90373  -19.91638  -11.57986
      H1    -1.08399  -19.01395  -11.31247
       H     6.25719  -19.24942  -19.56042
       O     5.65000  -19.35236  -18.83490
      H1     4.79618  -19.04230  -19.17640
       H    -8.37737  -14.88324  -11.75372
       O    -7.82018  -15.37439  -11.17684
      H1    -7.05555  -15.46872  -11.71153
       H    -7.90763  -15.56599  -16.94646
       O    -8.90688  -15.57334  -16.82917
      H1    -8.94271  -16.29037  -16.12708
       H     9.05980  -17.29360  -16.77127
       O     8.46537  -17.45074  -16.05498
      H1     7.62715  -17.30242  -16.54261
       H    -7.03710  -16.32376  -18.96165
       O    -6.49577  -15.72220  -18.42112
      H1    -6.18254  -16.27637  -17.69897
       H    -2.50976  -19.71026  -15.88344
       O    -2.27324  -18.75316  -15.73182
      H1    -2.64950  -18.16378  -16.41589
       H    -0.54506  -18.05924   -4.87951
       O    -0.50056  -17.56073   -5.74854
      H1    -0.74242  -18.09825   -6.48988
       H     2.32041  -14.83518  -10.02376
       O     1.61176  -15.15450   -9.51018
      H1     0.88856  -14.50344   -9.69657
       H     3.58152  -13.02072   -9.99110
       O     3.86654  -13.88329  -10.31493
      H1     3.81544  -13.82124  -11.26858
       H     5.99070  -14.06206  -14.79381
       O     6.31699  -13.54529  -14.04877
      H1     6.54805  -14.22746  -13.32397
       H     5.21132  -16.52883  -13.93416
       O     5.00696  -17.16727  -14.60899
      H1     5.12014  -16.70619  -15.52177
       H    -0.67608  -12.02562  -15.83193
       O    -1.08365  -12.32423  -15.01454
      H1    -1.95808  -11.86913  -15.07819
       H    -4.09577  -19.11356  -10.38156
       O    -4.97340  -19.50688  -10.16795
      H1    -5.35370  -18.93579   -9.46585
       H    -6.71760  -13.72490  -18.42722
       O    -6.93913  -12.76124  -18.24798
      H1    -6.07212  -12.28957  -18.30173
       H     5.98873  -17.89300  -18.00367
       O     5.91687  -17.17418  -17.32666
      H1     5.78420  -16.32939  -17.85038
       H    -0.43483  -11.32204  -13.81681
       O    -0.14957  -10.75493  -13.05943
      H1    -0.72096   -9.99018  -12.95007
       H     6.41273  -14.37323  -17.42369
       O     5.54362  -14.40463  -17.00695
      H1     4.84976  -14.62276  -17.66822

