168
frame 8 | Written by MDAnalysis XYZWriter (release 2.4.3)
       H   -15.83539   -6.13481    9.72007
       O   -16.05806   -6.96555    9.22368
      H1   -16.84753   -6.63484    8.75157
       H   -13.77650  -11.90052    8.85963
       O   -14.22999  -12.53590    8.28598
      H1   -14.70768  -12.01203    7.62517
       H   -16.55895   -4.88398   -1.63978
       O   -16.84118   -4.07943   -2.11546
      H1   -17.20596   -4.34093   -2.90685
       H   -14.48741  -13.72599   -0.06060
       O   -14.84314  -13.45808   -0.91278
      H1   -15.81749  -13.45729   -0.80906
       H   -15.96795   -6.92648   -1.06192
       O   -15.56485   -6.08312   -0.76938
      H1   -14.63181   -6.06182   -1.12025
       H   -15.23882  -11.29280   -1.42562
       O   -15.02332  -10.35107   -1.43026
      H1   -14.60957  -10.30489   -0.54964
       H   -18.79354   -3.85962    0.18546
       O   -18.80497   -4.83629    0.33120
      H1   -19.50989   -4.91417    0.94673
       H   -19.07393  -12.92390    2.54875
       O   -19.61795  -12.15263    2.47558
      H1   -19.27978  -11.61409    3.16910
       H   -17.59357  -15.17658   -4.07450
       O   -18.34370  -14.94071   -3.52837
      H1   -18.86301  -15.70850   -3.27671
       H   -17.82296  -10.51682    8.08311
       O   -17.51796   -9.78705    7.57506
      H1   -17.31224   -9.10187    8.20349
       H   -17.61465  -14.88043    2.90700
       O   -17.73533  -14.09010    2.37833
      H1   -16.97109  -13.57830    2.64411
       H   -15.80152  -19.14528    0.44586
       O   -15.57044  -18.22689    0.80886
      H1   -15.73143  -18.30328    1.75023
       H   -18.74801   -7.85781   -1.29284
       O   -19.37756   -7.06668   -1.38754
      H1   -19.02684   -6.37747   -0.81262
       H   -16.36027   -9.47280   -1.37054
       O   -17.13932   -8.86122   -1.31044
      H1   -17.68214   -9.14522   -0.55854
       H   -16.11127  -17.88651    4.07314
       O   -15.48850  -18.24643    3.38947
      H1   -15.22669  -19.13351    3.66900
       H   -15.76891  -13.22550    8.57267
       O   -16.64696  -13.61020    8.62196
      H1   -16.68567  -14.06491    9.48777
       H   -15.33279   -3.48493    3.32392
       O   -16.00178   -3.43130    2.61590
      H1   -15.97816   -4.16041    2.03727
       H   -18.16871  -13.48005    5.99743
       O   -17.94280  -12.58924    5.67051
      H1   -17.13018  -12.31611    6.00830
       H   -12.30403  -10.92640    3.54963
       O   -11.96996  -11.11665    2.67674
      H1   -11.37425  -11.89550    2.85565
       H   -14.13436  -15.66640    2.16476
       O   -14.85512  -15.48420    1.51211
      H1   -15.68876  -15.77188    1.84158
       H   -19.76085   -9.35837    3.69184
       O   -19.12259   -9.81565    4.23749
      H1   -19.54122  -10.08228    5.05273
       H   -12.46368  -11.10845    5.64223
       O   -13.00539  -10.46460    5.16007
      H1   -12.37761   -9.71370    5.01060
       H   -13.45347  -17.57739    6.88178
       O   -13.87784  -16.86390    7.47107
      H1   -14.30725  -17.41485    8.18897
       H   -14.90176   -8.83767   -4.31407
       O   -14.46670   -8.10556   -3.88832
      H1   -14.39017   -7.48229   -4.59064
       H   -17.68355  -14.14487    0.47029
       O   -17.46170  -14.18390   -0.50352
      H1   -18.09350  -13.52926   -0.84187
       H   -15.92887  -10.53218   -5.63041
       O   -15.74379  -10.53802   -4.66815
      H1   -16.43791   -9.99064   -4.20159
       H   -18.71945   -9.58671    2.00196
       O   -19.07115   -9.00640    1.28507
      H1   -19.90450   -9.43307    0.98653
       H   -12.91391   -6.82039    4.31937
       O   -13.36217   -7.47726    4.91483
      H1   -13.95095   -8.01488    4.28816
       H   -17.92857  -13.18749   -3.14564
       O   -17.70983  -12.23928   -3.08940
      H1   -18.58140  -11.80978   -3.00984
       H   -14.82554  -10.04137    1.82972
       O   -14.44682  -10.90303    1.54441
      H1   -13.57930  -10.89891    1.97992
       H   -17.42396  -15.85371   -0.34685
       O   -17.64038  -16.75288   -0.13973
      H1   -16.81484  -17.19861    0.13351
       H   -18.28016   -4.42898    4.73455
       O   -18.30148   -3.71925    4.06040
      H1   -17.40638   -3.81724    3.60618
       H   -17.60844  -13.27790   -6.14702
       O   -17.83409  -12.37393   -6.01471
      H1   -17.70837  -11.97467   -5.14919
       H   -14.98242  -12.15397   -4.10470
       O   -14.30155  -12.73700   -3.62848
      H1   -14.57308  -12.73582   -2.69908
       H   -15.30649  -12.00687    2.79869
       O   -15.54622  -12.72571    3.41247
      H1   -16.00913  -12.20302    4.11073
       H   -17.83575  -12.49891    9.03515
       O   -18.46170  -11.73630    9.29858
      H1   -18.32866  -11.48601   10.22858
       H   -19.36758   -9.58254   -3.60112
       O   -19.46253   -9.04497   -4.38439
      H1   -19.65397   -8.12893   -4.17406
       H   -15.05604  -15.93248    6.65280
       O   -15.62227  -15.26295    6.14331
      H1   -15.97346  -14.81335    6.87327
       H   -19.12859   -5.91159    8.93721
       O   -18.63493   -5.32804    8.35639
      H1   -18.73146   -4.43325    8.80679
       H   -15.01143   -8.07257    1.16150
       O   -15.65131   -8.45255    1.75434
      H1   -16.24540   -7.72338    1.85878
       H   -18.00308  -17.82163   -1.33899
       O   -17.95247  -18.60678   -1.87527
      H1   -17.33195  -19.19851   -1.43842
       H   -13.59248   -7.36723   -2.23763
       O   -13.22903   -6.60726   -1.88634
      H1   -12.87030   -6.10698   -2.67685
       H   -17.96111  -17.56004    5.08931
       O   -17.47072  -16.86745    4.62896
      H1   -16.98489  -16.29206    5.25319
       H   -18.85259   -9.04892   -5.97050
       O   -18.26456   -8.91246   -6.72147
      H1   -17.83876   -8.10635   -6.54088
       H   -17.64873   -5.48989    1.51202
       O   -16.82519   -5.94373    1.70515
      H1   -16.39300   -5.92247    0.78821
       H   -12.22852  -12.64380    7.22024
       O   -11.68158  -12.60908    6.42971
      H1   -12.05439  -13.18598    5.79101
       H   -15.99036  -10.40728    6.59745
       O   -15.48273  -11.15436    6.30497
      H1   -14.73284  -10.73439    5.82843
       H   -14.00958  -13.47386    4.15738
       O   -13.46392  -14.01252    4.74760
      H1   -14.13504  -14.50623    5.22099
       H   -12.27686  -16.22603   -0.87444
       O   -11.79263  -15.78583   -1.56126
      H1   -11.83635  -16.49660   -2.20143
       H   -13.80249  -16.96274    3.54541
       O   -13.02297  -16.40704    3.46509
      H1   -12.98173  -15.76648    4.15571
       H   -15.87207   -5.44280    5.25649
       O   -16.53139   -5.84569    4.67240
      H1   -16.25411   -5.51857    3.78323
       H   -15.49845  -14.23140   -3.90040
       O   -15.48750  -15.16821   -3.82742
      H1   -15.14459  -15.25747   -2.91023
       H   -18.17406   -6.52489    4.93356
       O   -19.14130   -6.38175    4.90969
      H1   -19.50762   -6.79516    4.13222
       H   -10.85658   -9.04758   -1.59264
       O   -11.47997   -9.61665   -1.14346
      H1   -12.04912   -9.97812   -1.79692
       H   -12.41167  -17.28321    1.57823
       O   -12.42639  -17.36029    0.59233
      H1   -13.32385  -17.41766    0.44476
       H   -12.89238   -7.70539   -0.07797
       O   -12.82506   -7.56536    0.86379
      H1   -11.90396   -7.82316    1.07835

