168
frame 9 | Written by MDAnalysis XYZWriter (release 2.4.3)
       H    -4.44426    3.55205   -2.85600
       O    -4.54079    2.70667   -3.38585
      H1    -5.45644    2.77151   -3.59788
       H     3.10730    9.03217   -3.48575
       O     3.28684    8.81144   -4.45838
      H1     3.89674    8.05916   -4.37012
       H    -2.22283    3.81990    1.39820
       O    -1.46070    3.25346    1.01751
      H1    -1.35746    2.57605    1.69515
       H    -0.97680    8.45914   -5.65054
       O    -1.30642    8.48624   -6.57142
      H1    -2.01626    9.09601   -6.72736
       H     0.47031    4.88248   -8.61609
       O     1.24273    4.82111   -8.09734
      H1     1.87289    4.51950   -8.77368
       H     0.56273    1.32014   -5.52949
       O     0.66143    2.27538   -5.52937
      H1    -0.14393    2.55472   -5.99691
       H     2.17314    4.79078    1.72319
       O     2.55085    3.81094    1.73186
      H1     2.10955    3.34665    1.00064
       H    -3.25960    7.56319   -0.82831
       O    -3.94052    6.95587   -0.49649
      H1    -4.11295    6.39251   -1.31271
       H     1.97596    0.99820   -0.01069
       O     2.17930    1.91850   -0.23195
      H1     3.09483    1.98761   -0.45063
       H    -4.50885    7.42376   -5.04461
       O    -4.41269    8.38486   -5.29050
      H1    -5.22154    8.49373   -5.77729
       H    -4.01922    9.37169   -3.95871
       O    -3.67608    9.84095   -3.16261
      H1    -4.16975    9.45866   -2.47597
       H     5.06785    5.78384   -4.34681
       O     5.04065    6.63089   -4.81625
      H1     4.53694    6.55185   -5.64039
       H    -4.42637    5.49056   -3.11985
       O    -4.55325    5.08061   -2.25722
      H1    -5.53124    5.07022   -2.06050
       H    -3.89895    5.41180    0.70753
       O    -3.32638    5.18530    1.48532
      H1    -2.74209    5.94810    1.63587
       H     0.90207    6.11407    1.12758
       O     1.32354    6.20868    2.02333
      H1     1.67152    7.09805    2.06455
       H     6.51676    3.17565    1.13710
       O     6.98920    3.35240    0.33059
      H1     6.51986    4.14196    0.02247
       H    -0.25110    6.18815   -0.89345
       O     0.12127    5.47827   -0.31420
      H1    -0.55723    4.79541   -0.19731
       H     6.68535    6.01035   -2.44067
       O     6.46571    5.09207   -2.37738
      H1     5.55668    5.31419   -2.04603
       H     2.27149   -1.00250   -4.24244
       O     1.45946   -0.71738   -4.75807
      H1     1.19972   -1.51398   -5.28035
       H     6.08654   -0.04904   -2.22267
       O     5.22698    0.34162   -2.28346
      H1     4.95799    0.51975   -1.36397
       H     5.41834    4.05293   -7.73451
       O     4.49449    3.96553   -8.04107
      H1     4.14381    3.34885   -7.34005
       H    -3.50199    7.57747    1.37435
       O    -3.12218    7.83928    2.27414
      H1    -3.46584    7.22454    3.02509
       H     0.86103    6.50613   -7.53771
       O     0.82245    7.45356   -7.81132
      H1     0.17994    7.81682   -7.18498
       H     2.28012    3.92735   -2.82193
       O     2.86980    3.14434   -2.71589
      H1     2.32039    2.37411   -2.48557
       H     2.24849    9.84322   -6.01272
       O     1.77223   10.60829   -6.38346
      H1     1.02253   10.31862   -6.91699
       H    -0.66265   10.59734   -2.49349
       O    -0.91895   10.33576   -3.43589
      H1    -1.89503   10.05872   -3.40737
       H     3.47545    8.45159   -0.99787
       O     2.75694    8.31876   -1.60676
      H1     2.68542    7.35711   -1.54220
       H    -1.52397    1.79004   -4.11809
       O    -2.23845    2.32069   -4.48109
      H1    -3.09938    2.24979   -4.00350
       H    -2.46486    0.27929   -2.21035
       O    -1.53273    0.11129   -2.35818
      H1    -1.01640    0.91263   -2.21721
       H     0.67242   12.36989    0.28936
       O     1.51408   11.96311    0.15235
      H1     1.73535   11.96546   -0.81021
       H     5.64396    8.12014    0.91855
       O     4.78754    7.97698    0.49416
      H1     4.15600    7.93379    1.21012
       H    -2.28274    4.80800    4.15999
       O    -2.49490    5.72178    4.44273
      H1    -3.28607    5.64424    5.00956
       H     4.70312   11.84669   -4.65088
       O     5.17305   11.03043   -4.73966
      H1     4.41770   10.38101   -4.62744
       H     3.53513    8.28565    3.10384
       O     2.89372    8.36742    2.38896
      H1     2.75564    9.35208    2.21232
       H    -4.12392    5.71015   -5.99614
       O    -3.95904    5.55242   -5.04856
      H1    -3.01150    5.32862   -4.97363
       H     5.94566    2.13096   -3.49269
       O     5.37851    2.50891   -4.19454
      H1     4.52438    2.69703   -3.78446
       H    -0.07270    8.57498    2.95173
       O    -0.65000    9.04548    2.32834
      H1    -1.45575    8.51062    2.26821
       H     0.33010    2.72566   -1.58055
       O     0.00665    2.30637   -2.39747
      H1     0.12624    2.93918   -3.09986
       H     3.84457    1.79826   -5.70076
       O     3.28657    2.16833   -6.34447
      H1     2.40540    2.12524   -5.93756
       H    -0.69199    9.67846    0.36820
       O    -0.28054   10.02509   -0.45562
      H1     0.41625   10.65483   -0.18384
       H     1.39053    6.24282   -3.11448
       O     1.71414    5.65887   -2.44277
      H1     1.04018    5.57270   -1.79098
       H    -0.46711    8.27162   -1.57021
       O    -0.80183    7.40264   -1.84480
      H1    -0.36804    7.27084   -2.70567
       H     6.70045    7.21471   -5.23969
       O     7.63942    7.51521   -5.13386
      H1     7.50833    8.38427   -5.66078
       H     4.08338    4.81152    0.83136
       O     4.68622    5.10271    0.13530
      H1     4.75541    6.06846    0.32414
       H     1.83200    8.70496    3.82429
       O     1.20252    9.02155    4.46611
      H1     0.89316    8.22936    4.90624
       H    -4.28416    2.96734   -0.38172
       O    -3.74502    2.24931    0.01531
      H1    -2.85920    2.64517    0.06590
       H     3.65827   11.28401   -1.10962
       O     3.11292   11.52429   -1.89750
      H1     3.58557   12.26206   -2.27592
       H     1.33233    2.84376    3.20372
       O     1.07061    2.17666    3.84759
      H1     1.63844    1.37506    3.52954
       H    -1.92695    5.85320   -7.76853
       O    -1.74520    4.96666   -8.11700
      H1    -1.88931    4.96698   -9.06642
       H     5.23134    0.69104    1.16266
       O     4.47748    0.32145    0.68448
      H1     3.72918    0.40709    1.31291
       H     3.88363    5.85027   -7.77252
       O     3.92262    6.75447   -7.35442
      H1     3.00010    7.03145   -7.48585
       H    -1.81048    3.99025   -4.24324
       O    -1.41323    4.79470   -3.82190
      H1    -1.48339    4.52640   -2.88377
       H    -0.33551   -1.28385    0.14946
       O     0.16437   -0.77202   -0.48546
      H1    -0.45705   -0.66093   -1.24105
       H     1.38816    8.47768   -4.24193
       O     0.43976    8.36116   -4.45132
      H1     0.03933    9.14149   -4.04977
       H    -4.85999    0.50490   -2.48218
       O    -4.24200    0.17258   -1.79713
      H1    -3.87243    0.90405   -1.35307
       H    -2.18093    2.09785   -6.77463
       O    -1.42550    2.26132   -7.36494
      H1    -1.59233    3.09782   -7.65163

