168
frame 9 | Written by MDAnalysis XYZWriter (release 2.4.3)
       H     8.78037   -0.29073    0.12151
       O     9.07648   -1.16008   -0.20749
      H1     9.93760   -1.32095    0.26527
       H     6.48301   -0.60047    2.45473
       O     6.77477   -1.43849    2.77485
      H1     6.75179   -2.01285    1.99800
       H    10.46757   -2.71265   -2.72073
       O    11.21645   -2.43023   -3.21053
      H1    11.98416   -2.91619   -2.74685
       H     6.49430    3.64593    3.98130
       O     6.28213    2.89907    4.54392
      H1     7.04383    2.71155    5.11698
       H    15.21627    2.96338    2.59367
       O    15.42013    3.65385    1.93298
      H1    16.32752    3.45217    1.62729
       H     7.81612   -2.50364    0.30884
       O     7.09097   -3.16470    0.52217
      H1     6.25292   -2.84728    0.14671
       H    11.84120    5.62907   -7.78748
       O    11.30709    5.18461   -7.09569
      H1    11.82470    5.40679   -6.28931
       H    13.98749   -4.32550   -2.85953
       O    13.55869   -3.70963   -2.26856
      H1    13.30416   -4.33953   -1.56387
       H    13.18811    0.92419   -6.85167
       O    13.53329    0.51284   -7.66142
      H1    12.96402   -0.20027   -7.72605
       H     6.81511   -6.03944   -0.02134
       O     7.41546   -5.55393   -0.60592
      H1     7.48481   -4.63592   -0.21036
       H    14.16228    3.53859   -5.39986
       O    13.87072    3.46777   -4.51420
      H1    13.31581    4.31234   -4.42093
       H    11.52297    2.66351   -1.62931
       O    11.87414    3.52054   -1.94447
      H1    12.51516    3.84073   -1.30982
       H     9.30627   -2.43849    3.73895
       O     9.38520   -1.50459    3.47541
      H1     8.48154   -1.25812    3.26177
       H     6.51676    3.17565    1.13710
       O     6.98920    3.35240    0.33059
      H1     6.51986    4.14196    0.02247
       H    10.04562    1.49620   -7.47516
       O     9.90177    0.74873   -8.05495
      H1     9.12031    1.06192   -8.60374
       H    17.27060    2.49378   -0.41120
       O    17.44150    3.14125    0.32451
      H1    18.42133    3.41916    0.25153
       H    16.74175   -0.82050   -3.84648
       O    16.78140   -0.04327   -3.27050
      H1    15.92506    0.04160   -2.77201
       H     6.68535    6.01035   -2.44067
       O     6.46571    5.09207   -2.37738
      H1     5.55668    5.31419   -2.04603
       H    12.19589   -5.88842   -0.40874
       O    12.58611   -5.04576   -0.14876
      H1    13.40993   -5.19216    0.28629
       H     6.08654   -0.04904   -2.22267
       O     5.22698    0.34162   -2.28346
      H1     4.95799    0.51975   -1.36397
       H    14.94165    0.54990   -0.87509
       O    14.59805    0.68194   -1.77155
      H1    14.99101    1.54623   -2.06058
       H    14.32164    1.99890    4.38367
       O    14.71652    1.59113    3.58892
      H1    13.88259    1.27767    3.11259
       H    12.14889   -1.76236    1.29757
       O    11.48703   -2.26125    0.80975
      H1    11.33466   -3.08407    1.28618
       H    10.92978    5.77787    4.81693
       O    10.69289    5.57446    5.72642
      H1    11.23592    4.77501    6.00365
       H     8.57045    1.79614    7.10461
       O     8.41599    1.86150    6.17631
      H1     9.07935    1.25075    5.79757
       H     7.35683    5.66319    4.03650
       O     6.85540    5.33541    3.24212
      H1     7.43746    5.53901    2.50083
       H     8.98768    7.78117   -1.21379
       O     9.33890    7.74726   -0.30120
      H1     9.51899    6.84215   -0.06254
       H     7.52458    1.26996    2.19624
       O     6.53328    1.26260    2.25855
      H1     6.32131    1.62830    3.17372
       H    10.85984    0.68447   -0.98927
       O    10.71656    1.50789   -0.51989
      H1     9.88916    1.78113   -0.87045
       H     7.02249   -1.91780   -5.30135
       O     7.95191   -2.17714   -5.06507
      H1     8.18678   -1.67272   -4.23571
       H    12.65496    0.15619   -2.23642
       O    11.75914    0.07947   -2.59982
      H1    11.54924   -0.84520   -2.65575
       H    11.59000   -4.90504    1.43015
       O    11.04450   -4.84713    2.20791
      H1    10.56906   -5.69276    2.35072
       H    12.21663    4.00332    0.98482
       O    11.44088    4.02896    1.56854
      H1    11.44955    4.96282    1.85837
       H     5.94566    2.13096   -3.49269
       O     5.37851    2.50891   -4.19454
      H1     4.52438    2.69703   -3.78446
       H    12.51426   -1.65462    3.41081
       O    12.95693   -0.96389    2.87930
      H1    12.58617   -0.15180    3.27238
       H    14.25702    5.11202    3.81272
       O    13.75077    5.39046    4.58604
      H1    13.50532    6.30903    4.39183
       H    16.54833    3.55261   -2.66077
       O    15.65805    3.31886   -2.41503
      H1    15.14068    3.45869   -3.24866
       H    12.93267    2.02563   -4.60871
       O    12.47206    1.19491   -4.92884
      H1    12.23506    0.73132   -4.11655
       H    11.94002    5.02647   -3.45007
       O    12.10049    5.81612   -3.97338
      H1    12.92846    6.19682   -3.72591
       H     8.79831    2.63310   -2.45992
       O     8.52333    2.02774   -1.71151
      H1     7.87838    2.39648   -1.08687
       H    13.40860   -2.14929   -5.73077
       O    14.00124   -2.20191   -6.57588
      H1    13.99002   -1.28497   -6.87574
       H    15.88472   -0.89296    0.60128
       O    16.15285   -0.01104    0.43679
      H1    15.83922    0.45821    1.20196
       H    10.92296    2.24828   -5.43453
       O    10.43095    2.77281   -6.10790
      H1    11.04470    3.40383   -6.38443
       H    15.74310   -1.02210    4.88759
       O    14.78489   -1.25033    4.95846
      H1    14.31213   -0.98341    4.17806
       H     4.08338    4.81152    0.83136
       O     4.68622    5.10271    0.13530
      H1     4.75541    6.06846    0.32414
       H    10.77132    7.15835    2.63304
       O    11.51490    6.56135    2.61841
      H1    12.33800    7.00775    2.55237
       H    11.78749    2.36973    2.77793
       O    12.03737    1.63249    3.34975
      H1    11.32484    1.56405    4.02001
       H     7.99498    0.11775   -2.30942
       O     7.78104   -0.75788   -2.67196
      H1     8.18643   -1.25192   -1.94109
       H    11.36800   -3.63499   -4.75264
       O    11.80287   -4.38318   -5.13881
      H1    11.04079   -5.04920   -5.26780
       H     8.91990    3.59071   -4.99542
       O     8.57483    3.55691   -4.10551
      H1     8.22523    4.37133   -3.81622
       H     5.23134    0.69104    1.16266
       O     4.47748    0.32145    0.68448
      H1     3.72918    0.40709    1.31291
       H    14.39565    4.71473   -0.93740
       O    13.78913    4.57832   -0.20018
      H1    14.33316    4.35748    0.52964
       H     8.44907    4.65840    0.61813
       O     8.90279    5.31083    1.18132
      H1     9.82340    5.05557    1.16296
       H    10.00865   -0.39105    6.52290
       O    10.27614    0.02921    5.72980
      H1    10.00049   -0.50778    5.00691
       H    10.97650    7.19519   -3.30595
       O    10.55462    8.09315   -3.27037
      H1     9.69933    7.97170   -2.89149
       H     9.83720    1.38189    1.12600
       O     9.31463    0.81398    1.79747
      H1     9.96055    0.14640    2.03895

