168
frame 10 | Written by MDAnalysis XYZWriter (release 2.4.3)
       H     8.17741   -0.65714   -0.08458
       O     8.52911   -1.16947   -0.83509
      H1     9.47785   -1.35896   -0.57230
       H     6.51107   -0.85786    3.15736
       O     6.56998   -1.82583    3.21731
      H1     6.97452   -2.05772    2.33303
       H     5.59117   -8.61904    1.94003
       O     6.08272   -7.87633    1.54173
      H1     5.60576   -7.81480    0.70953
       H    10.25405   -2.69711   -2.31230
       O    11.10451   -2.43706   -2.76598
      H1    11.79274   -2.42806   -2.03024
       H     8.39161   -9.30029    6.97532
       O     7.84352   -8.88802    6.25219
      H1     8.46605   -8.27310    5.71804
       H    14.27511   -7.86987    4.04253
       O    13.49752   -7.59097    3.67813
      H1    13.77352   -7.03574    2.92077
       H    13.22276   -9.31077    0.13429
       O    13.39435   -8.96921   -0.75782
      H1    12.84352   -9.51628   -1.41428
       H     7.72728   -2.56557    0.21766
       O     7.13270   -3.06553    0.79306
      H1     6.27800   -2.83885    0.49017
       H    13.52901   -3.54999   -1.42341
       O    13.32689   -2.60407   -1.30983
      H1    12.82260   -2.51400   -0.50806
       H     6.75676   -6.01873    0.53516
       O     7.00921   -5.55254   -0.30127
      H1     7.18254   -4.69430    0.07904
       H     9.53473   -5.43439    4.91252
       O     9.81702   -4.51939    4.84289
      H1    10.58945   -4.61732    4.26599
       H    11.30452   -8.99108    6.27005
       O    11.52517   -9.90820    6.15563
      H1    12.43169   -9.91136    6.46669
       H    10.89790   -4.03999    6.46461
       O    11.20647   -3.45611    7.18989
      H1    12.14466   -3.48756    7.06454
       H    14.62785  -10.48784    2.12520
       O    14.52467   -9.52216    1.94294
      H1    14.05375   -9.16494    2.65852
       H     5.19818   -5.22579    3.41725
       O     5.93401   -5.91720    3.44573
      H1     5.73928   -6.57886    2.75767
       H     9.10474   -3.14674    4.15810
       O     9.03028   -2.29306    3.63182
      H1     8.10894   -2.04301    3.77539
       H    11.63478  -11.82321    3.68219
       O    11.06651  -11.08561    3.74782
      H1    11.33703  -10.61056    4.54452
       H     8.56778   -9.75805   -0.77830
       O     8.67329  -10.59406   -0.30753
      H1     8.91638  -11.24035   -0.95830
       H    16.87858   -8.66624    5.18131
       O    15.88744   -8.65015    5.25816
      H1    15.67324   -9.39615    5.85870
       H    12.71539   -6.30654   -0.92815
       O    13.24928   -5.48264   -0.87349
      H1    13.73803   -5.56999   -0.07771
       H    11.54047   -4.60691    2.24462
       O    11.84357   -4.45925    3.13585
      H1    12.58083   -4.95265    3.43019
       H    10.47498   -7.82618    1.69032
       O     9.77033   -7.24762    1.92900
      H1     9.05184   -7.44955    1.41322
       H    14.38812    0.04407   -0.40185
       O    14.16678    0.54154   -1.19547
      H1    14.19987    1.47677   -1.01072
       H    13.91413    2.52132    4.45307
       O    14.35173    2.02837    3.75891
      H1    13.95225    1.11153    3.79387
       H     7.63888   -6.07960    6.47530
       O     8.07746   -5.62021    7.22677
      H1     8.98486   -5.96646    7.26959
       H    11.51255   -1.47630    0.90180
       O    11.06720   -1.95568    0.15329
      H1    10.91415   -2.86393    0.41624
       H    14.89418   -8.64237   -1.47614
       O    15.73711   -8.48395   -1.99086
      H1    16.04510   -7.69910   -1.51129
       H    15.92890   -3.65538    4.50589
       O    16.41916   -4.46278    4.51031
      H1    17.03805   -4.45679    5.23452
       H    13.88013   -2.58889    7.50986
       O    13.88603   -3.28795    6.83058
      H1    13.97076   -2.77595    6.01432
       H    11.77291   -8.10457   -1.03294
       O    11.32535   -7.23568   -0.90998
      H1    11.13470   -7.00867   -1.82452
       H    16.18793   -3.86685    2.71619
       O    15.85051   -3.62930    1.84375
      H1    16.60200   -3.77211    1.21095
       H    11.35284    0.92192   -0.90026
       O    10.90268    1.26849   -0.10309
      H1    10.36581    2.01568   -0.46800
       H    12.81136   -0.05435   -2.00454
       O    11.89819    0.05035   -2.38054
      H1    11.61377   -0.85275   -2.54605
       H    19.31268   -4.75222    3.80706
       O    18.62706   -5.36582    3.41536
      H1    17.74840   -4.96351    3.65995
       H    14.33146   -5.06638    7.51633
       O    14.77147   -5.83751    7.92674
      H1    15.46804   -5.98447    7.29999
       H    11.44892   -4.88366   -0.10939
       O    10.85827   -4.61180    0.60928
      H1    10.10186   -5.24577    0.64774
       H     7.81665   -6.65900    3.85555
       O     8.54277   -6.85874    4.53895
      H1     9.34281   -7.04315    3.96675
       H    12.49298   -3.00322    2.57238
       O    12.85026   -2.12397    2.30655
      H1    12.52214   -1.52813    3.02122
       H    11.40920   -6.94965    5.94606
       O    11.21706   -7.44397    5.15290
      H1    12.11496   -7.43297    4.73142
       H    15.26266   -6.22090    1.00033
       O    14.48620   -5.80570    1.53446
      H1    14.89900   -4.93998    1.79712
       H     6.33792   -4.18770   -1.83733
       O     6.36876   -3.29087   -2.24780
      H1     6.79819   -3.42086   -3.10463
       H     9.19166   -2.15545    7.60262
       O     8.72438   -1.30870    7.71424
      H1     7.98087   -1.39609    7.11682
       H    15.47313   -1.54707    1.27959
       O    15.08005   -0.61709    1.23842
      H1    14.25617   -0.73344    1.70857
       H     4.76058   -3.64063    5.10519
       O     4.72516   -3.66944    4.15610
      H1     5.44420   -3.12407    3.78472
       H    14.06627   -5.70691   -2.74843
       O    14.11287   -5.56503   -3.74416
      H1    13.27842   -5.13586   -3.91341
       H    15.39252   -1.44263    4.36268
       O    14.76215   -2.21454    4.43991
      H1    14.18744   -2.19017    3.68884
       H    10.32591  -10.39568    0.73247
       O    11.09485  -10.05963    1.18944
      H1    11.00983  -10.44778    2.11197
       H    10.93000   -5.13178    7.76177
       O    10.81499   -6.11557    7.67423
      H1    11.03201   -6.37367    8.56936
       H     9.53639   -7.48730   -0.40460
       O     8.58467   -7.72299   -0.38826
      H1     8.14463   -6.90217   -0.61010
       H    17.10184   -6.02026    0.43283
       O    16.60141   -6.81233    0.22143
      H1    17.08415   -7.50656    0.75766
       H     6.31418   -2.98684    7.31460
       O     6.60319   -2.90357    6.41349
      H1     7.20923   -3.65980    6.22517
       H    11.78006    0.87890    3.58699
       O    12.28242    0.15121    3.98774
      H1    11.73041   -0.28743    4.68492
       H    11.29759   -3.79873   -3.78055
       O    11.55589   -4.58534   -4.32922
      H1    10.80632   -5.23848   -4.26400
       H    11.52841   -7.93992   -4.24861
       O    10.90151   -7.73193   -3.56118
      H1    10.24734   -7.26532   -4.05549
       H     9.77872   -0.89455    6.39239
       O    10.28653   -0.64036    5.58187
      H1     9.94414   -1.29788    4.94747
       H    10.02599    0.72452    1.18326
       O     9.39322    0.32355    1.77690
      H1     9.70369   -0.60770    1.95164

