168
frame 9 | Written by MDAnalysis XYZWriter (release 2.4.3)
       H     7.89801    9.53615  -12.57777
       O     8.75867    9.78249  -12.20282
      H1     8.59793   10.50665  -11.62662
       H    12.40085    9.55473  -13.54718
       O    12.65683   10.27905  -14.14831
      H1    12.85531   10.95529  -13.55279
       H     8.99684   13.31365  -12.39474
       O     8.21039   13.85106  -12.63691
      H1     7.91817   13.60285  -13.52623
       H     5.78049   16.62262  -10.38061
       O     5.21352   17.27838  -10.84440
      H1     5.77423   17.41196  -11.66405
       H    15.90793   11.45613   -3.99481
       O    15.28099   12.01488   -4.48881
      H1    14.43719   11.96082   -4.01991
       H    14.15503   11.83202  -10.70572
       O    13.98899   12.10849  -11.61553
      H1    13.56430   12.97502  -11.55353
       H    15.65658   12.04977  -12.15082
       O    16.56665   11.85105  -12.40484
      H1    17.09042   12.25173  -11.70410
       H    14.51196    7.65354   -8.50260
       O    14.39165    8.11027   -9.35740
      H1    14.09126    9.04091   -9.20108
       H    16.85263   16.12348   -9.12208
       O    16.98125   15.34260   -8.56167
      H1    17.81539   15.01572   -8.96599
       H    10.24177   13.00419   -6.84523
       O    11.12650   12.78755   -7.25494
      H1    11.11808   13.21421   -8.10508
       H     8.00557   12.67973   -5.63987
       O     8.69577   13.10663   -5.10507
      H1     8.34589   13.87778   -4.68153
       H    16.63397   16.42838  -14.31130
       O    16.41914   17.15915  -13.73931
      H1    15.60047   17.55045  -14.16194
       H     7.90262   19.07566  -13.33511
       O     7.58499   18.57681  -12.55399
      H1     8.10038   19.06572  -11.91217
       H    13.22892   16.77183  -11.70838
       O    13.60478   16.72528  -10.80039
      H1    14.10170   15.94917  -10.71678
       H    11.17527   11.82086   -3.21018
       O    10.37615   11.47592   -3.56645
      H1     9.87250   12.09852   -4.18709
       H     9.84101   13.20617  -10.47119
       O    10.26586   12.79507  -11.18919
      H1    10.36406   11.81927  -11.05820
       H    12.73433   10.37191   -9.66936
       O    13.68398   10.56235   -9.55852
      H1    13.84204   10.83988   -8.67168
       H     8.94058   17.13368  -12.59549
       O     9.28885   16.54076  -13.27663
      H1     8.91242   15.67012  -13.08542
       H    11.32349   17.78338   -8.33964
       O    11.71218   18.26036   -9.10030
      H1    12.25684   17.62794   -9.53916
       H     4.46854   10.75864  -10.28454
       O     5.19138   10.24133  -10.57173
      H1     5.99989   10.77528  -10.59012
       H     9.77624   16.34391  -10.06864
       O     9.22682   17.02765  -10.51890
      H1     9.79694   17.78088  -10.68553
       H    10.07574   19.27817   -4.09896
       O    10.58826   19.45813   -4.91655
      H1    11.46844   19.14453   -4.71191
       H     7.70792   15.97673  -10.17595
       O     7.06913   15.23816  -10.27863
      H1     7.23327   14.99719  -11.18351
       H     4.87089   14.11712  -13.11781
       O     4.75181   13.37929  -12.48722
      H1     3.80428   13.18194  -12.45243
       H     8.36826   16.60787  -14.58576
       O     7.66062   16.60429  -15.32204
      H1     6.84418   16.21238  -15.09719
       H     4.37850   16.62477   -7.54369
       O     4.65874   15.94809   -6.88364
      H1     5.65488   16.15061   -6.79804
       H    10.60177   10.08209   -9.75861
       O    11.24232   10.18266  -10.49911
      H1    11.18761    9.25105  -10.88865
       H    10.51609   15.69860  -16.28472
       O     9.89553   15.63386  -17.02152
      H1     9.05021   15.87941  -16.54909
       H     6.48720   18.12968  -10.19654
       O     7.13379   18.51269   -9.55628
      H1     7.95151   17.94281   -9.66500
       H    14.34851   12.07306   -6.83155
       O    13.70428   11.38278   -7.09847
      H1    12.79819   11.73424   -7.01620
       H    11.60249   14.78331   -9.95317
       O    10.82033   14.88832   -9.40041
      H1    11.20479   15.37727   -8.63832
       H     6.24157   13.96884   -7.94848
       O     6.24837   13.23980   -7.24797
      H1     5.30272   13.03947   -7.06149
       H    12.99572   15.05899  -16.01346
       O    12.44916   15.86524  -15.95247
      H1    12.29776   16.18942  -16.88789
       H    12.20606   16.51514  -14.03579
       O    12.12391   16.47288  -13.10628
      H1    11.13712   16.38286  -13.05613
       H     9.64731    9.68806   -7.35519
       O     9.43787    9.64194   -8.30988
      H1     8.80041    8.89310   -8.33118
       H    10.79247   10.47035  -14.26150
       O     9.98710   11.02358  -14.13907
      H1     9.55307   10.41164  -13.42310
       H    15.50228   17.51135  -10.38743
       O    16.46405   17.44889  -10.17400
      H1    16.89248   17.92631  -10.89756
       H     7.36600   15.06311   -2.34516
       O     7.79639   15.25259   -3.14648
      H1     7.67099   16.23078   -3.24920
       H    10.57932   19.41196  -14.68859
       O    11.24200   19.42252  -13.98013
      H1    12.06499   19.22645  -14.41152
       H    11.00996   15.53961   -2.87891
       O    11.29249   15.93552   -2.03483
      H1    10.64121   15.62709   -1.38715
       H     6.63314    9.52253   -7.20588
       O     7.07872    9.88256   -6.40241
      H1     6.26912   10.12758   -6.00722
       H     7.85336   11.97034   -9.85005
       O     7.50055   11.66814  -10.74410
      H1     7.22198   12.41720  -11.25632
       H    15.59231   14.26934   -6.05689
       O    15.32357   13.97909   -6.92388
      H1    16.00329   14.43391   -7.47492
       H    13.70239    9.73055   -5.90770
       O    13.27691    9.01918   -5.37345
      H1    12.37041    9.22852   -5.36430
       H    10.35000   14.41826   -5.24014
       O    10.91321   15.04748   -4.79236
      H1    10.86525   15.79071   -5.32163
       H    13.55295   18.65582   -5.89382
       O    13.15555   17.86975   -5.40585
      H1    12.86424   17.23226   -6.07734
       H     7.02621   17.86971   -7.66129
       O     7.21073   17.12926   -7.03978
      H1     7.12723   17.53519   -6.12393
       H    10.37644   18.19453   -6.25430
       O    10.14418   17.47338   -6.89478
      H1     9.14877   17.51193   -6.99662
       H     7.31668   12.11880   -7.93797
       O     8.19421   12.01543   -8.30597
      H1     8.47102   11.12729   -8.25496
       H    11.59675   13.76984  -11.70823
       O    12.39519   14.22435  -11.91076
      H1    12.21371   15.00284  -12.43077
       H    14.30908   18.67488  -15.55938
       O    14.30891   17.76849  -15.12448
      H1    13.70148   17.24847  -15.65349
       H     8.71145   12.04059  -15.03438
       O     7.87726   12.53693  -15.19343
      H1     7.16785   11.95251  -14.96801
       H     9.96398    9.03153   -5.06410
       O    10.40595    9.68356   -5.69194
      H1    10.61009   10.36469   -5.05170
       H    17.62785   19.80543   -7.74632
       O    17.12435   20.02580   -8.57279
      H1    16.74468   19.22306   -8.97597
       H    14.89410   17.27934   -4.66854
       O    15.67683   17.09501   -4.17376
      H1    16.09612   16.35635   -4.60981
       H    13.61014   14.97681   -6.94536
       O    12.70747   15.32258   -6.98963
      H1    12.15776   14.57125   -6.77351

