168
frame 3 | Written by MDAnalysis XYZWriter (release 2.4.3)
       H   -17.24162   -5.77510   -2.87538
       O   -18.14338   -5.70495   -2.44678
      H1   -18.73357   -5.32468   -3.13037
       H   -13.20816    0.39275    3.81793
       O   -14.08258    0.74054    3.59543
      H1   -14.47115    0.94288    4.44750
       H   -15.96616   -7.33379    0.85463
       O   -15.16286   -7.46070    0.37993
      H1   -15.42069   -8.18209   -0.27074
       H   -15.90999   -8.87467    3.02315
       O   -15.37930   -9.49157    2.43688
      H1   -15.16350   -8.98205    1.67203
       H   -10.05739   -1.94896    2.27228
       O    -9.38203   -2.35389    2.75092
      H1    -9.11825   -1.81938    3.52075
       H   -17.75007   -4.23237   -0.68465
       O   -18.23963   -4.38078    0.11704
      H1   -18.38204   -3.51517    0.47966
       H   -14.21139   -7.88046    8.05589
       O   -15.17478   -8.06476    8.22864
      H1   -15.53526   -7.20587    8.60011
       H   -19.29748    1.04749    4.42562
       O   -18.70241    1.26575    3.64285
      H1   -18.29538    2.14395    3.84635
       H   -14.72270   -5.46604   -3.69823
       O   -15.58736   -5.14239   -3.70119
      H1   -16.01591   -5.42159   -4.47266
       H   -13.48993   -3.78210   -1.05401
       O   -12.82998   -3.08453   -1.32554
      H1   -12.53072   -2.66017   -0.54287
       H   -16.46410    2.27089    4.86186
       O   -16.09025    1.69241    5.55233
      H1   -16.86757    1.36069    5.97733
       H   -15.66205   -3.62352   -4.14685
       O   -15.86879   -2.70317   -4.28404
      H1   -15.01746   -2.31097   -4.59538
       H   -10.80873   -4.81041    3.26149
       O   -10.76468   -4.29717    4.07041
      H1   -10.19237   -3.58112    3.78157
       H   -11.30144    1.93377    0.94968
       O   -12.24242    2.24018    0.83390
      H1   -12.56924    1.74175    0.06612
       H   -16.20323   -9.09581    5.42259
       O   -16.16945   -9.56344    6.25705
      H1   -16.12557   -8.77343    6.91508
       H   -14.28264   -0.59481    2.61630
       O   -14.38030   -1.38780    2.01026
      H1   -14.72388   -2.07827    2.60223
       H   -11.81046   -0.81100    4.21954
       O   -11.49549   -0.03182    3.69192
      H1   -10.56219   -0.05224    3.94772
       H   -16.24024   -1.10616   -0.19635
       O   -16.51833   -0.79340    0.64012
      H1   -15.74219   -1.05560    1.16584
       H   -12.40037   -2.96030    4.38753
       O   -12.60584   -2.20292    4.92105
      H1   -13.49533   -2.11790    5.04387
       H   -18.34391   -7.84607   -0.49905
       O   -18.94586   -7.17077   -0.13341
      H1   -18.60474   -6.26858   -0.41707
       H    -9.80864   -3.17024    6.43543
       O   -10.58411   -2.70605    6.79277
      H1   -11.24038   -2.51005    6.13185
       H    -8.98718   -5.75184   -0.07602
       O    -8.79777   -4.94849    0.39621
      H1    -7.86603   -4.94802    0.54288
       H   -14.85262   -4.37021    3.14328
       O   -15.45539   -3.96606    2.50463
      H1   -15.11638   -4.20848    1.61957
       H   -17.80847   -8.49852    4.66310
       O   -17.15478   -7.95715    4.08706
      H1   -17.66176   -7.42743    3.46077
       H   -14.76678    1.87495    1.95178
       O   -15.45859    2.37476    1.53235
      H1   -15.52642    2.08675    0.61634
       H   -13.58935   -5.80456    4.46671
       O   -14.22157   -5.12647    4.61741
      H1   -14.10421   -4.91647    5.56774
       H   -17.18867   -1.51866    8.25239
       O   -16.44219   -2.09183    8.44633
      H1   -15.91153   -2.01828    7.63517
       H   -12.28193   -0.76535    8.15005
       O   -12.83730   -0.02819    7.81382
      H1   -12.15464    0.61425    7.59837
       H   -11.76293   -4.92744   -3.72954
       O   -11.43468   -5.11922   -2.85526
      H1   -11.75277   -4.33298   -2.31649
       H   -10.77262   -5.70842    5.33042
       O   -10.47897   -6.51793    5.89156
      H1    -9.86700   -6.99288    5.33108
       H   -16.65550  -10.01767   -0.97650
       O   -17.05339   -9.11648   -1.09269
      H1   -17.09609   -8.98101   -2.02264
       H   -13.83338  -10.67037    2.51642
       O   -13.28326  -11.45025    2.60788
      H1   -12.46108  -10.99750    2.92203
       H   -19.25323   -1.38126    7.44389
       O   -18.58871   -0.72037    7.31936
      H1   -18.19390   -0.88321    6.41889
       H   -12.22946   -6.67218    8.32156
       O   -12.66327   -7.12600    7.58655
      H1   -11.86098   -7.32467    7.04130
       H   -11.99620   -2.98613    1.18961
       O   -11.88120   -2.03237    1.14664
      H1   -12.66490   -1.66369    1.57777
       H   -11.30624   -6.04121    1.39931
       O   -11.07953   -5.13896    1.61203
      H1   -10.16076   -5.06687    1.20361
       H   -18.19916   -3.61185    4.91647
       O   -18.32702   -3.50109    3.96019
      H1   -17.59902   -4.05917    3.66278
       H   -17.83810   -0.18491    4.34004
       O   -17.39686   -0.95691    4.78956
      H1   -17.62128   -1.68326    4.18166
       H   -19.44232   -0.51827    0.66767
       O   -19.08765   -1.40132    0.51685
      H1   -18.08576   -1.27270    0.54548
       H   -18.95978   -2.49841   -3.65633
       O   -18.98070   -2.22968   -2.69554
      H1   -19.75695   -1.65232   -2.64882
       H   -18.75180   -4.84888    9.29699
       O   -17.94095   -4.78160    8.81894
      H1   -17.54979   -3.90424    8.81857
       H   -11.76452   -7.16267    4.60950
       O   -12.61229   -7.36370    4.23438
      H1   -12.39467   -7.62232    3.28149
       H   -16.11645   -2.59120   -2.62067
       O   -16.49053   -2.59512   -1.72398
      H1   -17.47541   -2.61002   -1.94794
       H   -14.12508   -7.09847   -3.56089
       O   -13.70178   -7.15059   -2.69026
      H1   -12.73440   -7.22798   -2.81187
       H   -17.61080   -5.38501    1.58513
       O   -17.28214   -6.08062    2.23134
      H1   -16.46672   -5.73030    2.63112
       H   -13.17122    0.10634   -1.99999
       O   -13.88445   -0.62343   -2.16402
      H1   -13.49880   -1.33055   -1.65017
       H    -9.78010   -2.27256   -0.89419
       O    -9.05164   -2.79503   -1.17937
      H1    -9.06992   -3.51237   -0.59350
       H   -14.98052    1.21685   -1.38486
       O   -15.63050    1.87397   -1.11050
      H1   -15.44614    2.72459   -1.56716
       H   -18.24115    2.31409   -0.24840
       O   -18.41730    2.02505    0.67967
      H1   -17.69716    1.44451    0.85598
       H   -15.67209   -5.98027    6.65613
       O   -16.43212   -6.35399    6.23913
      H1   -16.21979   -6.87995    5.48142
       H   -15.76572    1.08664   -3.31834
       O   -16.14074    0.52705   -3.97763
      H1   -16.29975   -0.22416   -3.44998
       H   -13.60460   -5.50373    7.56992
       O   -14.00158   -4.69175    7.33354
      H1   -14.19668   -4.26807    8.19395
       H   -18.76064   -5.59018    6.88536
       O   -19.67120   -5.51039    6.72399
      H1   -19.78205   -5.78700    5.80198
       H   -15.66387   -1.23474    5.71832
       O   -14.87232   -1.57837    6.19158
      H1   -14.34312   -0.86350    6.52753
       H   -13.12363   -7.41809    1.01986
       O   -12.24093   -7.82326    1.20113
      H1   -12.06314   -8.62128    0.67176
       H   -14.94467   -5.51789   -0.36590
       O   -14.72808   -4.56889   -0.23738
      H1   -15.56284   -4.10979   -0.44221

