168
frame 7 | Written by MDAnalysis XYZWriter (release 2.4.3)
       H    17.30791   15.82228    3.09466
       O    16.98016   15.63474    2.20353
      H1    17.54002   14.91009    1.76479
       H    17.86073    3.91387   -6.56214
       O    18.50202    4.08612   -5.84118
      H1    18.82931    3.25552   -5.52972
       H    15.80582    8.61553   -7.32438
       O    15.29986    9.34494   -6.95677
      H1    14.63280    8.93898   -6.38794
       H    16.47670   13.17914    4.29286
       O    17.05616   12.49455    3.81326
      H1    16.63268   11.64753    3.74571
       H    16.62317   14.76759   -3.13701
       O    16.04475   14.86187   -3.87906
      H1    15.25065   14.42919   -3.60096
       H    16.74928   15.60271   -7.18691
       O    17.19542   15.93973   -6.40091
      H1    16.87659   15.48042   -5.57124
       H    14.02648   16.72554    2.97119
       O    14.20572   15.83161    2.67014
      H1    15.12975   15.78002    2.50653
       H    14.88014   11.91998   -3.87069
       O    14.28327   12.07746   -4.60437
      H1    13.79508   11.25385   -4.78501
       H    13.59507    8.92743    2.55725
       O    13.33721    8.09194    2.08698
      H1    13.66471    8.05156    1.21558
       H    14.52465    8.77010   -8.71632
       O    14.44482    8.09941   -9.39309
      H1    13.88381    8.59406  -10.02525
       H    15.59158   15.47778   -8.95326
       O    15.98031   14.75144   -8.45636
      H1    16.48579   14.11858   -8.98104
       H    18.04945   10.97912   -2.30680
       O    17.44514   10.71357   -3.01106
      H1    16.66858   10.31674   -2.62709
       H    14.10509    3.37994   -6.32646
       O    14.05015    3.72575   -5.39059
      H1    13.43843    4.46221   -5.28634
       H    17.70909   12.86937    1.78166
       O    17.80952   13.33684    0.93966
      H1    16.97071   13.26487    0.46451
       H    10.91469    8.37657   -3.21424
       O    11.16086    8.01043   -2.36745
      H1    10.39032    7.71584   -1.85941
       H    10.65399    3.92522   -2.85657
       O    10.68193    4.88064   -3.08256
      H1    11.22119    5.29547   -2.35559
       H    18.14269   10.58556   -7.45697
       O    17.80122   10.89539   -8.34995
      H1    17.18000   10.21087   -8.64723
       H    10.38706   11.36912   -3.30368
       O     9.41004   11.21032   -3.42776
      H1     9.21012   11.84765   -4.17367
       H    16.89002    6.78100   -5.42546
       O    16.85920    6.61887   -4.43297
      H1    16.70486    5.66317   -4.30770
       H    17.11609    2.78564    1.41019
       O    17.55957    3.56975    1.06656
      H1    18.43123    3.24035    0.80778
       H    10.02453    9.75312    0.87640
       O     9.76207    9.84640   -0.06921
      H1     9.54106    8.96196   -0.37758
       H    17.66440    9.67343    2.79121
       O    16.70668    9.58412    3.01980
      H1    16.70020    8.95681    3.79927
       H    17.71661   10.34275   -4.83284
       O    17.79287    9.86856   -5.66998
      H1    16.89447    9.81653   -5.90175
       H    19.40714   10.15234   -0.32663
       O    19.44086    9.25354    0.03338
      H1    18.72363    8.72254   -0.21758
       H    11.46662   11.03844   -1.05290
       O    11.78683   10.70661   -1.91131
      H1    11.51289    9.81096   -1.84657
       H    15.28528    7.61603    5.62346
       O    16.09592    7.77861    5.14880
      H1    15.93093    7.34821    4.33320
       H    13.28045   11.98875   -7.91063
       O    12.79725   11.19595   -8.18547
      H1    11.86376   11.30711   -7.98586
       H    12.55482   14.44359   -0.31094
       O    12.96240   13.72601   -0.87663
      H1    12.25254   13.73439   -1.62337
       H    17.58663   12.42182   -9.09693
       O    17.57430   13.14441   -9.79426
      H1    18.37724   13.68626   -9.89713
       H    13.63342    6.99938    3.35349
       O    13.81343    6.40137    4.13627
      H1    13.32090    6.86867    4.82327
       H    16.37110    4.16078   -0.35278
       O    15.78579    4.12146   -1.13591
      H1    16.26746    3.84489   -1.91487
       H    19.96511   12.18903   -1.37162
       O    19.30360   11.63492   -0.97667
      H1    18.81742   12.31971   -0.41357
       H    18.39634    4.64708   -2.03657
       O    18.81153    5.42732   -1.78184
      H1    18.69614    6.12195   -2.42290
       H    11.85266    5.73050   -4.50371
       O    12.42972    5.83719   -5.25765
      H1    13.10448    6.52813   -5.05845
       H    15.55916    3.86943   -4.46062
       O    16.46050    3.97337   -4.02426
      H1    17.03823    3.73267   -4.77434
       H    10.79930   15.01951   -3.69950
       O    10.48647   14.60243   -2.83532
      H1     9.48319   14.64037   -2.93247
       H    15.82340    8.72853  -10.13993
       O    16.64806    9.12903  -10.48491
      H1    16.49338    9.94719  -11.03090
       H    14.28043   13.04143   -6.32663
       O    13.99125   13.45581   -7.16962
      H1    14.77085   13.76513   -7.68376
       H    16.89528    6.16261   -7.52204
       O    17.11673    7.07163   -7.24864
      H1    18.06636    7.31522   -7.45797
       H    12.85344   10.02408   -6.43262
       O    12.87560    9.81018   -5.49440
      H1    11.97807    9.49406   -5.36428
       H    15.96923    5.35458    2.53151
       O    16.68043    6.02669    2.74956
      H1    17.20147    5.48832    3.35717
       H    18.16938    9.15325   -2.86251
       O    18.46187    8.19815   -2.86097
      H1    17.96184    7.77509   -3.55453
       H    12.04104   12.45102    1.65787
       O    11.68525   12.20950    0.75945
      H1    12.08220   12.89129    0.16439
       H    15.86730    7.76301    0.12249
       O    14.93813    7.61305   -0.13204
      H1    14.94864    6.89178   -0.74543
       H    13.78189    9.81612   -2.01935
       O    14.68886    9.54235   -1.92150
      H1    14.73183    8.87672   -1.22716
       H    15.42973    7.37561   -4.59028
       O    14.45632    7.65210   -4.73459
      H1    14.23046    8.49223   -4.26568
       H    14.64158   13.13685   -0.45019
       O    15.54504   12.73033   -0.55335
      H1    15.47361   11.82285   -0.84469
       H    19.74195    8.98125   -8.58280
       O    19.49413    8.06799   -8.42386
      H1    19.36451    7.54238   -9.24818
       H    15.00486   10.34255    2.71781
       O    14.13618   10.56692    3.11706
      H1    14.22572   10.55352    4.08818
       H    13.47407   13.89182    3.45263
       O    13.03825   13.06074    3.14901
      H1    13.63075   12.28576    3.17119
       H     9.73301    7.97991   -4.87156
       O    10.24218    8.77996   -4.83421
      H1     9.62859    9.36297   -4.43344
       H    14.72703   17.74956   -4.34679
       O    15.45838   17.69166   -3.67701
      H1    15.68381   16.76760   -3.57668
       H    13.21440    3.53961   -0.45228
       O    12.82766    4.22586    0.10098
      H1    13.43186    4.46778    0.83313
       H    18.45592   13.74380   -3.65214
       O    18.63000   14.17750   -2.80738
      H1    19.17128   14.94999   -3.10562
       H    17.44212    6.77004    1.19182
       O    17.58147    7.19680    0.28182
      H1    17.61238    6.43307   -0.25179
       H    13.90389   15.47103   -6.72433
       O    13.41406   16.28872   -6.53099
      H1    12.61979   15.96506   -6.12566

