168
frame 10 | Written by MDAnalysis XYZWriter (release 2.4.3)
       H   -15.67124    5.27429  -19.67153
       O   -14.72849    5.52404  -19.45869
      H1   -14.55015    6.44909  -19.76343
       H   -17.06357   -1.06337   -9.35094
       O   -16.12726   -1.06431   -9.60227
      H1   -15.66030   -0.54179   -8.95020
       H   -11.62670   -2.19621   -9.94302
       O   -11.06260   -1.36736   -9.92067
      H1   -10.97185   -1.23566  -10.85036
       H   -18.99785   -2.71322  -12.65579
       O   -18.61501   -3.50161  -13.02783
      H1   -19.31605   -4.12256  -13.12511
       H   -17.29629   -1.23171  -14.90673
       O   -16.74672   -1.24583  -14.11081
      H1   -16.55605   -2.18591  -14.16540
       H    -6.76673   -4.35386  -16.88021
       O    -7.41837   -4.92359  -16.50701
      H1    -8.08014   -4.37303  -16.09809
       H   -15.61110   -2.40092  -10.69227
       O   -15.48700   -3.29746  -11.07497
      H1   -15.61173   -3.31121  -12.00794
       H   -18.09175    1.93165   -9.52496
       O   -17.17869    1.93496   -9.81937
      H1   -16.90939    1.04747   -9.75755
       H   -15.30973   -2.20371  -16.35991
       O   -14.69457   -1.48375  -16.14210
      H1   -15.25881   -0.94616  -15.56476
       H   -16.81500   -8.13584  -15.20025
       O   -17.62065   -7.66450  -15.07414
      H1   -17.73857   -7.53242  -14.13130
       H   -16.97575   -4.13640  -13.38054
       O   -16.04387   -4.10064  -13.61990
      H1   -15.60569   -4.94294  -13.30265
       H   -11.76155   -5.42981  -12.12846
       O   -11.47883   -5.49046  -11.18809
      H1   -11.98467   -4.75847  -10.74959
       H   -15.25319    4.76227  -17.87538
       O   -15.43433    4.45100  -16.98115
      H1   -14.68716    3.79665  -16.82315
       H   -17.94939   -0.51829  -16.83599
       O   -18.29262   -1.30045  -16.31991
      H1   -17.76022   -1.98392  -16.78512
       H   -15.70828   -9.75450  -14.47701
       O   -15.01380   -9.07965  -14.57879
      H1   -14.20976   -9.49130  -14.18459
       H   -15.95409   -3.99454   -7.74384
       O   -15.84349   -4.80985   -8.29379
      H1   -16.15650   -4.40774   -9.11784
       H   -17.45716    1.60881  -17.31906
       O   -17.76883    0.81669  -17.79797
      H1   -17.59741    1.01607  -18.73425
       H   -13.36114    1.40442  -10.64924
       O   -12.85622    2.22252  -10.64361
      H1   -12.94742    2.61421   -9.77156
       H   -13.03065    0.74065   -8.85816
       O   -13.34507   -0.07365   -9.21229
      H1   -12.51096   -0.44356   -9.48754
       H   -13.19959   -7.81184   -9.81716
       O   -14.05880   -7.33082   -9.83157
      H1   -13.79833   -6.43718  -10.13348
       H   -20.23078    4.24942  -19.87634
       O   -19.77283    3.55866  -19.32910
      H1   -18.88545    3.89473  -19.05328
       H   -13.13667   -1.42536  -15.11140
       O   -12.34936   -1.40950  -14.55569
      H1   -12.49544   -0.63010  -13.99955
       H   -11.75134   -8.88914  -15.38830
       O   -11.32725   -8.35901  -16.07984
      H1   -11.26063   -8.98918  -16.75682
       H   -10.62367    5.29984  -11.35769
       O   -10.48610    4.67846  -12.13447
      H1   -11.39452    4.38631  -12.37757
       H   -19.12548   -1.56532   -9.58041
       O   -18.64792   -0.83817   -9.14947
      H1   -18.77267   -0.95266   -8.20593
       H   -15.39377    4.89250  -14.58969
       O   -14.90229    5.34897  -13.89065
      H1   -14.47846    6.04382  -14.43616
       H   -15.43533   -0.81559  -18.92206
       O   -14.48939   -1.02000  -18.78340
      H1   -14.41181   -1.02094  -17.75915
       H   -10.55864   -3.00836  -13.90077
       O    -9.88706   -3.59913  -14.21352
      H1    -9.99683   -3.62434  -15.13292
       H   -13.07680   -4.68109  -16.11431
       O   -12.82221   -4.73933  -17.02601
      H1   -13.38623   -4.12090  -17.41983
       H    -9.30866    2.05143  -15.01198
       O    -8.49011    1.56050  -14.95978
      H1    -8.69893    0.72285  -15.32806
       H    -8.26898   -2.67274  -19.26592
       O    -8.79043   -1.84902  -19.28004
      H1    -9.69588   -2.13981  -19.45636
       H   -19.22466   -7.94239  -12.05717
       O   -18.73671   -7.28873  -12.60675
      H1   -19.36233   -6.69654  -13.07064
       H    -8.94673    4.10290  -18.31423
       O    -8.80414    3.26448  -17.89721
      H1    -9.66840    2.95036  -17.50947
       H   -16.97415    1.34729  -11.82968
       O   -16.93297    1.39540  -12.80504
      H1   -16.82643    0.50116  -13.10197
       H   -13.96562   -5.94171  -17.90974
       O   -14.47347   -6.63236  -18.40212
      H1   -14.06218   -7.51980  -18.18882
       H    -8.50162    0.30539  -19.45334
       O    -8.46743    1.22579  -19.73249
      H1    -8.59946    1.86361  -18.97797
       H   -13.78086    4.30737  -13.19816
       O   -13.03134    3.73071  -12.96134
      H1   -13.22850    3.29368  -12.10543
       H   -10.15731   -7.20751  -15.31112
       O    -9.44470   -6.78271  -14.77203
      H1    -9.73446   -5.84686  -14.82386
       H   -17.15682   -3.98693  -16.99751
       O   -16.58383   -3.48203  -16.37758
      H1   -16.48810   -4.09351  -15.57719
       H   -10.88742    1.03989  -11.92920
       O   -11.47914    0.31072  -12.21961
      H1   -12.25094    0.74649  -12.62414
       H   -13.34224   -3.52023   -9.08916
       O   -13.08944   -3.54892  -10.01888
      H1   -13.99926   -3.39263  -10.43120
       H   -19.38249   -3.57417  -17.83747
       O   -18.70839   -4.33588  -17.81860
      H1   -19.11323   -5.05071  -17.33647
       H   -10.91691   -4.34205  -17.57636
       O   -10.11245   -4.03151  -17.23788
      H1    -9.45344   -4.37458  -17.84390
       H   -10.24771   -1.37977  -17.26343
       O   -10.13192   -0.94427  -16.40147
      H1   -10.95068   -1.22227  -15.93376
       H   -13.08952    3.61496  -17.64343
       O   -12.99436    3.11673  -16.79277
      H1   -12.64177    3.77102  -16.14756
       H   -16.31932   -7.30983  -18.35116
       O   -16.95558   -7.84370  -18.86853
      H1   -17.16922   -7.39395  -19.70440
       H    -8.65531   -3.71650  -12.86222
       O    -7.87434   -4.03539  -12.34165
      H1    -7.96648   -4.98587  -12.40292
       H   -17.81435    2.94213  -15.25961
       O   -17.28325    2.68421  -16.02859
      H1   -16.81556    3.38227  -16.42513
       H   -11.72193    2.08996  -16.96322
       O   -10.83131    1.72413  -16.94514
      H1   -10.79009    0.76632  -16.93270
       H   -12.68756    6.38114  -16.38674
       O   -11.90953    5.80332  -16.45304
      H1   -11.25481    6.25055  -15.89780
       H   -19.82178    1.30782  -11.66607
       O   -19.44454    0.60187  -12.29621
      H1   -18.55466    0.92435  -12.50323
       H   -14.69449    0.91947  -13.17472
       O   -13.79206    1.19783  -13.39032
      H1   -13.70582    2.20839  -13.37958
       H   -13.00254   -3.78827  -19.39188
       O   -13.90717   -3.67449  -19.27904
      H1   -14.08179   -2.73818  -19.21811
       H   -17.50539    5.39059  -18.84640
       O   -17.21253    4.65380  -19.46397
      H1   -17.43991    4.88237  -20.37375
       H   -13.41117   -9.45704  -17.14893
       O   -14.27520   -9.08991  -17.20648
      H1   -14.65888   -9.08471  -16.35556
       H   -15.09601   -6.79661  -12.18832
       O   -14.74936   -6.47132  -13.00949
      H1   -14.61232   -7.35296  -13.42665

