168
frame 10 | Written by MDAnalysis XYZWriter (release 2.4.3)
       H    -7.92119  -17.62042  -11.69252
       O    -8.47221  -18.32815  -11.39285
      H1    -8.13706  -19.16512  -11.74049
       H    -9.01531  -19.23619   -7.00812
       O    -8.62584  -19.45454   -6.13389
      H1    -9.34481  -19.89400   -5.63151
       H    -4.23207  -14.94664  -11.17136
       O    -4.86636  -15.12408  -11.83882
      H1    -5.67516  -14.76558  -11.40289
       H    -9.26129  -16.94229   -3.39104
       O    -9.21466  -16.84988   -4.39225
      H1    -8.42047  -17.33236   -4.62323
       H    -8.22553  -18.72153  -14.86925
       O    -8.13905  -17.78721  -14.84986
      H1    -7.47968  -17.64946  -14.07745
       H    -4.38089  -13.53614  -14.52236
       O    -4.27394  -13.14767  -13.61646
      H1    -4.38691  -13.82304  -12.94280
       H    -8.72829  -10.61937  -11.17018
       O    -8.29767  -10.50896  -12.05581
      H1    -7.41801  -10.15461  -11.73293
       H   -11.74147  -19.28638   -4.55715
       O   -11.37818  -20.05463   -5.04184
      H1   -11.89204  -20.07446   -5.86215
       H   -10.71139  -16.92208  -12.01720
       O   -10.72918  -16.69584  -11.04000
      H1    -9.86772  -17.09007  -10.76121
       H    -4.33588  -18.10626   -3.22901
       O    -3.63331  -18.50779   -3.81250
      H1    -3.45367  -17.84319   -4.47155
       H    -5.70111  -18.24765  -12.52285
       O    -6.04546  -17.41116  -12.86556
      H1    -5.54467  -16.74031  -12.40351
       H   -12.19842  -19.09868   -8.61809
       O   -12.28210  -19.23956   -7.68443
      H1   -13.18817  -19.05129   -7.41042
       H   -10.93599  -13.51801  -11.02976
       O   -10.63243  -13.95143  -10.19528
      H1   -10.61429  -14.85731  -10.43717
       H    -9.49413  -14.38164  -14.92478
       O    -9.56353  -13.60051  -14.29148
      H1    -8.88279  -13.77600  -13.63709
       H    -9.58839  -12.57896   -9.86592
       O    -8.98741  -11.88900   -9.48394
      H1    -9.27827  -11.81256   -8.55654
       H   -13.06764  -15.65330  -14.79534
       O   -12.45065  -14.92410  -14.76508
      H1   -12.44949  -14.40728  -15.53749
       H    -8.98626  -16.13202   -7.90165
       O    -8.29397  -15.45910   -7.99489
      H1    -8.55143  -15.01975   -7.23738
       H    -7.16159  -12.81353  -16.14352
       O    -6.84415  -12.14238  -15.49918
      H1    -7.07802  -12.41476  -14.62434
       H    -7.15263  -18.68081   -5.10116
       O    -6.64885  -17.85624   -5.19477
      H1    -6.80301  -17.70154   -6.13756
       H    -4.77226  -17.76776  -16.63281
       O    -4.80701  -16.86418  -16.17004
      H1    -5.38804  -17.12486  -15.44221
       H    -6.22440  -17.06612   -7.86919
       O    -6.60800  -17.93781   -7.94475
      H1    -7.55072  -17.84292   -8.11643
       H    -2.12521  -17.32318  -11.45318
       O    -2.64411  -17.79766  -10.72124
      H1    -2.22711  -17.52401   -9.89383
       H   -13.76836  -18.58907  -16.04428
       O   -14.40451  -18.77715  -15.29543
      H1   -13.86468  -19.34624  -14.71180
       H    -4.51620  -12.31965   -4.60992
       O    -5.18126  -13.00945   -4.44060
      H1    -5.66915  -13.22435   -5.26044
       H   -15.39206  -18.48575   -6.31130
       O   -14.67320  -18.29725   -6.88700
      H1   -14.47015  -17.33978   -6.70401
       H    -9.03398  -18.80666   -9.74475
       O    -9.38138  -18.89157   -8.83898
      H1    -9.74197  -19.76545   -8.90954
       H    -6.08958  -12.72451  -13.27043
       O    -6.94863  -12.70516  -12.92342
      H1    -7.25667  -11.87872  -12.61299
       H   -10.13796  -10.39773   -6.88833
       O    -9.80091  -11.29549   -6.65003
      H1   -10.55562  -11.86539   -6.51545
       H    -8.73993  -15.26368   -4.97043
       O    -8.54135  -14.37724   -5.47958
      H1    -9.22433  -13.84477   -5.05894
       H    -4.00955  -15.31758   -8.28036
       O    -4.48496  -15.68573   -7.51023
      H1    -5.06084  -14.99531   -7.30627
       H    -6.06464  -17.48253   -3.62469
       O    -5.87715  -17.36187   -2.72299
      H1    -5.65581  -16.41495   -2.67210
       H   -16.42447  -18.85646  -11.30714
       O   -16.97345  -19.64296  -11.28329
      H1   -17.85656  -19.30554  -11.46903
       H    -3.42708  -16.42380   -6.27618
       O    -2.84841  -16.62850   -5.49437
      H1    -2.03813  -17.01016   -5.81923
       H   -11.90969  -12.00653  -13.06449
       O   -12.06626  -12.79190  -12.54051
      H1   -11.90417  -13.51801  -13.14123
       H    -2.35083  -14.28168   -8.51115
       O    -2.76158  -14.43313   -9.35181
      H1    -3.28221  -13.56363   -9.53457
       H    -0.15996  -17.56500   -8.92414
       O    -0.90577  -17.73576   -8.37477
      H1    -1.19407  -18.61783   -8.56777
       H   -10.42002  -17.28109  -18.29330
       O   -10.97364  -16.51465  -18.01340
      H1   -10.50160  -16.16967  -17.20178
       H   -14.45857  -18.49223  -10.94602
       O   -15.00318  -17.78652  -11.22578
      H1   -14.78869  -17.47816  -12.13830
       H    -8.06244  -14.71145  -11.09747
       O    -7.58923  -15.52671  -10.75342
      H1    -7.71537  -15.47298   -9.79023
       H    -8.50025  -14.96849  -16.70497
       O    -9.15173  -15.47716  -16.17638
      H1    -8.64618  -16.20076  -15.78852
       H   -11.69995  -14.32370   -8.07033
       O   -11.69988  -14.39027   -7.16238
      H1   -11.43928  -15.24983   -6.99694
       H   -11.00320  -16.24904  -14.23311
       O   -10.60528  -17.01534  -13.84242
      H1    -9.77417  -17.19534  -14.33531
       H   -10.98949  -17.71769   -7.07683
       O   -10.53985  -16.87378   -6.92898
      H1   -10.08606  -17.07742   -6.05669
       H   -13.40016  -17.66187   -3.52294
       O   -12.63095  -17.67589   -4.07004
      H1   -12.88778  -17.27640   -4.84943
       H   -13.26216  -12.15064   -9.37137
       O   -12.76929  -11.48986   -8.89079
      H1   -13.38579  -11.16434   -8.21294
       H   -11.74777  -18.54763  -10.69974
       O   -12.43808  -19.12626  -10.26060
      H1   -12.05158  -20.01525  -10.44707
       H    -7.29434  -13.65227   -6.38377
       O    -6.36344  -13.44185   -6.69055
      H1    -6.46426  -12.80045   -7.34359
       H   -14.57609  -17.44282  -14.29747
       O   -14.65831  -16.70555  -13.66400
      H1   -15.59093  -16.53936  -13.63177
       H   -15.50049  -15.99212   -8.75558
       O   -15.32697  -15.64809   -9.61799
      H1   -15.33733  -16.40632  -10.25254
       H   -12.01575  -15.76707   -1.63246
       O   -11.37855  -15.91112   -2.32483
      H1   -11.90156  -16.56378   -2.83730
       H    -4.27125  -18.74086  -10.07565
       O    -5.10194  -19.19654   -9.85377
      H1    -5.62407  -18.53566   -9.31474
       H    -6.81662  -10.78649   -8.11164
       O    -6.53708  -11.54168   -8.64125
      H1    -7.34586  -11.93638   -9.03602
       H   -13.44965  -13.45448  -11.41859
       O   -14.29391  -13.23484  -11.04457
      H1   -14.58585  -14.03034  -10.57955
       H   -11.15851  -13.18898   -3.98173
       O   -10.42639  -13.58299   -3.49398
      H1   -10.72619  -14.31273   -2.95433
       H   -14.19785  -15.44929   -5.05223
       O   -13.73973  -15.87782   -5.79726
      H1   -13.31432  -15.13374   -6.30722
       H   -10.28444  -19.57326  -17.06322
       O   -10.38370  -19.30311  -17.98447
      H1    -9.58717  -19.61123  -18.40149

