168
frame 10 | Written by MDAnalysis XYZWriter (release 2.4.3)
       H     2.87633   15.92508  -11.70056
       O     2.20539   15.40901  -11.17892
      H1     1.50344   16.07523  -10.98469
       H    -5.57673    7.12232   -8.28738
       O    -5.91498    6.24125   -7.99899
      H1    -6.39073    6.45172   -7.20014
       H    -8.37331   11.96051  -12.66979
       O    -8.61633   12.82820  -12.97498
      H1    -9.08865   13.18314  -12.24232
       H    -4.18075   13.52840  -10.43675
       O    -4.17443   12.60774  -10.70737
      H1    -3.96685   12.56811  -11.64483
       H    -8.90319    9.07246   -8.05936
       O    -8.11674    8.55693   -8.33791
      H1    -8.37252    7.62840   -8.53635
       H    -0.50639    8.77492   -6.07831
       O    -0.47536    8.38656   -6.95041
      H1    -0.97989    9.05278   -7.45643
       H     0.93129   15.55012  -13.65008
       O     0.84292   15.53595  -14.62660
      H1     0.89633   14.61185  -14.86809
       H     0.62420   12.25643  -11.73535
       O    -0.34659   12.26578  -11.50938
      H1    -0.66258   11.37882  -11.40361
       H     2.42797   13.85564  -12.09963
       O     2.40153   12.91660  -12.28477
      H1     2.19421   12.74307  -13.23292
       H    -4.20736    7.98839   -5.28870
       O    -4.43050    8.89179   -4.93703
      H1    -5.33143    9.07161   -5.15790
       H     0.12982    6.47610  -14.05118
       O    -0.39723    6.48226  -13.23587
      H1     0.17322    6.05149  -12.58157
       H    -1.96770    6.61938  -12.74965
       O    -2.75440    6.69417  -12.18771
      H1    -3.49506    6.47405  -12.76420
       H    -5.98146   13.47575  -16.19638
       O    -6.34806   12.64647  -16.50855
      H1    -6.04488   11.89072  -15.98149
       H    -2.52052   12.94586  -13.52507
       O    -1.67731   13.47626  -13.45873
      H1    -1.06888   13.03451  -12.79690
       H    -5.85146    6.82226  -13.46336
       O    -5.47954    5.92786  -13.36881
      H1    -5.12468    5.77010  -14.27842
       H    -1.54444    7.50777  -16.11266
       O    -2.49320    7.66531  -15.74848
      H1    -3.06634    7.30635  -16.48059
       H     1.26892    8.43369  -11.20511
       O     1.29132    8.60360  -12.19138
      H1     0.46999    8.19199  -12.49543
       H    -1.22799   10.18838  -15.27999
       O    -0.36484   10.55214  -15.66257
      H1    -0.51388   10.82803  -16.57049
       H     3.39724    9.95463  -10.16283
       O     4.16347    9.67884  -10.68635
      H1     4.93922   10.21485  -10.35170
       H    -6.60840   14.11070  -10.88440
       O    -7.17501   14.74528  -10.45533
      H1    -6.70064   14.98930   -9.67560
       H     0.67448   14.35217   -6.05636
       O     0.24822   14.84033   -6.77066
      H1     0.40414   14.40015   -7.58017
       H    -5.45378   10.95905   -8.56917
       O    -4.99548   11.48670   -7.88033
      H1    -4.82081   12.32331   -8.26430
       H     1.41919    6.60991   -8.64668
       O     1.70258    7.55042   -8.78509
      H1     1.23612    8.12017   -8.14523
       H    -7.03546   10.11165  -11.28296
       O    -7.58891   10.37519  -11.98901
      H1    -8.35954    9.78191  -11.87593
       H     3.60786    7.01435  -11.25961
       O     3.79301    6.47366  -12.05692
      H1     2.99375    6.38410  -12.56414
       H     1.93501   10.66887   -5.32471
       O     1.82915   11.18530   -6.13468
      H1     0.88739   11.34370   -5.96315
       H    -4.42801   11.26987  -13.87435
       O    -4.16217   12.14894  -13.54004
      H1    -4.99838   12.65512  -13.56809
       H    -2.14030    9.75800  -10.64942
       O    -2.28589   10.48151  -11.22787
      H1    -2.82133   11.17029  -10.69650
       H    -4.69020   15.89608   -9.60219
       O    -4.19399   15.16614   -9.89089
      H1    -3.62743   15.39360  -10.64059
       H     1.69837    4.48294  -11.16906
       O     0.87917    4.99246  -11.19272
      H1     0.43531    4.52000  -11.92768
       H    -1.61611   11.06218   -6.35377
       O    -1.17649   11.89905   -6.25923
      H1    -1.42560   12.33112   -7.11610
       H    -6.38676   14.50176   -7.43851
       O    -6.10615   15.36354   -7.78157
      H1    -5.44720   15.61125   -7.10743
       H     0.44108    8.91362  -16.25919
       O     0.64968    7.96250  -16.31745
      H1     1.23724    7.91372  -15.54370
       H    -4.61531    5.87523   -6.36535
       O    -3.96997    6.48531   -5.95922
      H1    -3.49525    5.94156   -5.33377
       H    -1.44879    7.35531  -10.63909
       O    -0.88790    7.99297  -10.20999
      H1    -0.30634    7.50699   -9.56592
       H    -2.94341    4.84531   -9.76100
       O    -3.27833    4.83297   -8.86948
      H1    -3.79848    5.57601   -8.72971
       H    -3.44028   10.43349   -7.78818
       O    -2.69071    9.74330   -7.64853
      H1    -3.03131    9.07604   -7.09018
       H    -3.00455    5.24161  -15.69047
       O    -3.97183    5.06974  -15.71234
      H1    -4.21280    4.15911  -16.05459
       H    -1.55893   13.42328  -15.64620
       O    -2.04008   13.68077  -16.46301
      H1    -2.88857   13.86573  -16.13107
       H    -7.16198   13.98778  -13.23221
       O    -6.19433   14.21332  -13.33826
      H1    -6.21598   15.20161  -13.35019
       H     0.65055   13.23402   -9.73701
       O     1.30117   13.56556   -9.08890
      H1     1.98156   13.87339   -9.76508
       H    -6.92603    9.22606  -13.19415
       O    -6.44530    8.71988  -13.80734
      H1    -7.17741    8.54570  -14.43259
       H    -3.67129    7.61106  -10.21531
       O    -4.06043    7.80985   -9.38844
      H1    -3.29399    8.27531   -8.90680
       H    -6.83584   12.25576   -7.28314
       O    -7.41875   13.02467   -7.15686
      H1    -8.35230   12.81275   -7.52846
       H     1.19790   12.63967  -15.78746
       O     1.04850   12.81231  -14.80260
      H1     0.46509   12.04175  -14.63819
       H    -5.27857    9.34432   -9.68214
       O    -6.14470    9.80803   -9.67304
      H1    -6.76623    9.23873   -9.17000
       H    -3.86421    9.93572  -15.09616
       O    -4.72745   10.22434  -15.46169
      H1    -5.31589    9.77904  -14.88844
       H    -2.52908   14.70822   -5.73267
       O    -2.33580   15.36105   -6.44910
      H1    -1.42241   15.13805   -6.65786
       H    -2.21260   15.29241  -12.49973
       O    -2.57961   15.84753  -11.76794
      H1    -2.00013   15.68089  -11.02478
       H    -2.28640    8.80632  -14.18881
       O    -2.41186    9.78055  -14.02219
      H1    -2.51307    9.92774  -13.07847
       H    -1.14685    6.00888   -6.65457
       O    -0.96590    5.19002   -7.13591
      H1    -1.74110    5.16825   -7.70038
       H     3.22512    9.89579  -14.26445
       O     2.73183    9.08577  -14.46389
      H1     2.32090    8.80052  -13.65201
       H     2.10901   10.81568   -7.94219
       O     2.27493   10.82703   -8.88923
      H1     2.07634   11.73878   -9.06177
       H    -1.87056   12.86017   -9.68084
       O    -2.01908   13.20758   -8.75782
      H1    -2.52580   14.03269   -8.90779
       H    -0.79560   14.92261   -9.11648
       O    -0.85844   15.67126   -9.71143
      H1    -0.92809   16.42738   -9.13138
       H    -3.48991   11.11357  -18.62409
       O    -3.64790   10.48204  -17.93413
      H1    -3.97280   10.88209  -17.14155

