168
frame 0 | Written by MDAnalysis XYZWriter (release 2.4.3)
       H   -14.09285  -17.92423  -15.00881
       O   -13.56326  -17.90992  -15.80780
      H1   -12.66986  -18.22766  -15.55949
       H   -12.80534  -12.62668  -17.59042
       O   -12.20955  -12.43963  -16.83394
      H1   -11.66190  -13.21151  -16.78660
       H   -17.78012  -14.87810   -9.72648
       O   -18.44531  -15.09949  -10.35276
      H1   -18.17179  -14.80809  -11.26440
       H   -18.55189  -11.85651  -10.67881
       O   -17.60416  -11.67769  -10.87829
      H1   -17.39639  -11.28168  -10.01199
       H    -9.80908  -15.11419  -16.89010
       O   -10.47930  -14.44265  -16.64703
      H1   -10.06904  -13.89852  -15.92131
       H   -10.29707  -14.82553  -12.53074
       O   -10.12171  -14.49789  -11.60649
      H1    -9.85828  -13.56558  -11.75780
       H   -12.70572  -11.35351  -13.17200
       O   -11.75836  -11.33279  -12.94533
      H1   -11.27648  -11.76631  -13.62665
       H   -14.68351  -14.71921  -17.50512
       O   -14.88897  -15.36227  -18.20644
      H1   -13.96624  -15.51250  -18.58490
       H   -13.24358  -17.49583   -9.66773
       O   -13.87211  -17.19930   -9.02188
      H1   -13.63814  -16.29078   -8.83720
       H   -14.09466   -9.35246  -10.74833
       O   -14.82940   -9.98949  -10.63524
      H1   -15.62674   -9.42365  -10.77848
       H    -9.80078  -10.46626   -9.68108
       O    -9.10853  -10.68112   -9.06155
      H1    -9.51107  -11.17330   -8.27638
       H   -11.78535  -16.07927  -13.83678
       O   -10.85621  -15.76924  -14.04441
      H1   -10.91510  -15.38874  -14.92908
       H   -16.86058  -15.24251   -7.08080
       O   -16.74241  -15.21668   -8.02386
      H1   -16.04836  -14.56871   -8.22039
       H   -16.53992  -11.97378  -16.54299
       O   -16.67010  -12.95616  -16.36861
      H1   -16.91560  -12.88021  -15.42328
       H   -13.88102   -8.32380  -15.59420
       O   -14.43979   -8.58008  -14.83865
      H1   -15.39275   -8.58165  -15.10214
       H   -14.39274  -18.98450  -17.04791
       O   -14.78720  -19.82232  -17.29611
      H1   -15.05655  -19.81197  -18.23417
       H    -9.08934  -12.58334  -14.48933
       O    -9.99248  -12.45181  -14.81109
      H1    -9.91149  -11.83048  -15.54537
       H   -12.64960  -10.43489  -16.89672
       O   -12.42372   -9.49220  -16.89258
      H1   -11.52197   -9.38879  -16.52810
       H   -16.68443   -8.18729  -11.99654
       O   -17.10445   -8.96083  -11.57036
      H1   -17.54511   -8.71060  -10.74512
       H   -14.57345  -10.24522  -13.87781
       O   -14.51235  -11.00493  -13.36812
      H1   -14.84235  -10.70501  -12.52801
       H   -19.93560  -18.72025  -18.95239
       O   -19.26297  -19.21624  -19.40809
      H1   -18.47734  -18.67314  -19.20198
       H   -12.53787   -9.44564   -9.20777
       O   -12.51630   -8.54244   -9.51482
      H1   -13.02108   -8.07734   -8.88639
       H   -15.93709  -17.82761  -14.78317
       O   -15.43423  -17.60997  -13.98368
      H1   -15.51872  -18.31603  -13.27817
       H   -16.67853  -18.23635   -8.04713
       O   -17.51201  -17.85238   -7.78979
      H1   -17.41916  -16.93532   -8.02985
       H   -10.20091  -18.10104   -9.91229
       O    -9.62382  -17.96580   -9.15412
      H1    -8.72731  -18.27913   -9.33748
       H   -11.35612  -15.62506  -18.59649
       O   -12.28456  -15.95565  -18.52193
      H1   -12.52029  -16.05681  -17.59882
       H   -16.87570  -17.48363  -18.25613
       O   -17.08829  -17.56191  -19.18518
      H1   -17.07550  -16.76729  -19.64306
       H   -18.21880   -9.03170  -18.77412
       O   -18.85473   -8.85964  -18.04655
      H1   -19.06303   -9.71944  -17.71067
       H   -17.21015  -14.66004  -13.21183
       O   -18.17751  -14.74838  -13.04961
      H1   -18.37374  -15.58806  -13.47784
       H   -16.24392  -10.58661  -18.35773
       O   -15.70800  -10.50398  -17.55612
      H1   -16.15941   -9.89480  -16.94382
       H    -6.88614  -13.57278  -14.79239
       O    -7.49040  -13.11574  -14.20429
      H1    -6.92765  -12.62584  -13.57768
       H   -19.55713   -9.67328  -13.94724
       O   -19.40528   -9.55623  -14.89483
      H1   -19.63289   -8.60749  -15.06548
       H   -13.58254  -13.51466  -16.07343
       O   -14.36314  -14.03441  -15.77087
      H1   -15.13981  -13.48846  -15.98728
       H   -15.41241  -17.36774  -10.06421
       O   -16.06343  -17.54548  -10.79190
      H1   -16.84453  -16.98137  -10.52706
       H   -17.13703  -16.82301  -16.16698
       O   -16.51088  -17.35295  -16.70859
      H1   -15.67641  -16.85879  -16.82311
       H   -11.74080  -11.88384  -11.29198
       O   -11.58319  -12.04929  -10.32017
      H1   -11.40373  -12.99179  -10.17499
       H   -13.48430   -7.89990  -13.46687
       O   -12.68594   -7.63919  -12.97296
      H1   -12.01231   -8.31927  -13.24322
       H   -15.01225  -12.73579  -13.25090
       O   -15.39180  -13.61549  -13.37361
      H1   -15.02891  -13.94436  -14.24585
       H   -17.72018   -6.58382  -12.59719
       O   -16.75529   -6.48259  -12.44710
      H1   -16.57402   -5.68082  -11.90890
       H   -17.37699  -10.80817  -14.30575
       O   -17.71014  -11.72947  -14.07901
      H1   -17.43304  -11.92009  -13.15127
       H    -8.52654  -17.15424  -17.26336
       O    -8.63780  -16.56558  -16.48521
      H1    -7.91336  -16.68858  -15.86222
       H   -11.71542  -18.93314  -11.70227
       O   -11.53261  -18.02520  -11.38390
      H1   -12.18308  -17.53336  -11.89988
       H   -18.79048  -19.81235  -10.72049
       O   -18.47581  -19.95917   -9.83111
      H1   -18.42433  -19.06723   -9.53943
       H    -6.85290  -15.15149  -10.59567
       O    -7.54712  -15.30476   -9.93449
      H1    -8.38281  -15.08252  -10.41519
       H   -14.58098   -9.68464  -18.54590
       O   -14.07397   -9.13497  -19.13266
      H1   -13.24528   -9.05261  -18.71684
       H   -18.00026   -9.13913  -15.50643
       O   -17.08306   -8.77425  -15.67920
      H1   -17.27596   -7.95385  -16.22365
       H    -9.67610  -17.65605  -12.69375
       O    -8.90785  -18.14147  -13.05810
      H1    -8.39430  -17.49851  -13.56723
       H   -11.60298  -19.82648  -14.61810
       O   -10.78908  -19.35260  -14.85452
      H1   -10.53947  -18.84423  -14.08130
       H   -12.71280  -11.69788   -8.85054
       O   -13.22835  -11.09167   -8.34161
      H1   -14.14856  -11.29090   -8.53597
       H   -15.56738  -12.60132   -8.96928
       O   -15.80412  -11.85297   -8.37388
      H1   -16.00642  -12.29818   -7.53234
       H   -18.81814  -17.50217  -14.99901
       O   -18.63728  -16.62121  -15.21024
      H1   -19.39150  -16.34485  -15.73193
       H   -14.20809  -16.56028  -13.10928
       O   -13.41519  -16.07616  -12.92164
      H1   -13.77325  -15.22497  -12.85217
       H   -14.17079  -14.36955   -9.47023
       O   -14.95958  -13.95125   -9.84562
      H1   -14.66193  -13.50767  -10.62841
       H    -8.72359  -11.86971  -17.80307
       O    -9.53270  -11.33109  -17.79652
      H1    -9.24343  -10.55807  -17.39018
       H   -11.95996  -14.99630   -8.40405
       O   -12.80221  -14.52483   -8.48239
      H1   -13.13548  -14.37562   -7.62076
       H   -10.88548   -9.92870  -13.46711
       O   -10.40507   -9.19082  -13.88144
      H1    -9.61824   -9.06891  -13.26755

