168
frame 11 | Written by MDAnalysis XYZWriter (release 2.4.3)
       H    13.68775  -13.78416    3.59253
       O    13.05281  -13.64101    2.86470
      H1    12.43316  -14.40464    2.69657
       H     8.24746  -17.27671   -5.32121
       O     7.72306  -18.08489   -5.39933
      H1     6.78069  -17.76008   -5.40255
       H    19.34476  -16.75426   -2.30280
       O    18.67807  -16.11927   -2.53055
      H1    18.10414  -16.68949   -3.07670
       H    16.20442  -15.16729    0.34047
       O    16.56470  -14.47807   -0.27180
      H1    16.46355  -14.77725   -1.15668
       H    10.21183  -13.22533   -2.66776
       O     9.77339  -12.35818   -2.62244
      H1    10.33150  -11.72243   -3.13507
       H    10.55307  -14.58584    1.24266
       O    11.04822  -15.18063    1.82382
      H1    11.63796  -15.74162    1.32010
       H    17.85589  -14.17783    0.53064
       O    18.67788  -14.00973    1.00805
      H1    18.48086  -14.07068    1.94647
       H    12.09503  -14.94430   -6.30308
       O    12.02230  -14.97356   -5.32340
      H1    12.79167  -14.48478   -5.04924
       H    13.17427  -18.31290   -5.87875
       O    12.30325  -18.75312   -5.89620
      H1    11.67546  -18.19267   -6.32425
       H    13.48693  -13.25859    1.35339
       O    13.92929  -12.99682    0.49937
      H1    14.70621  -13.52604    0.50456
       H     8.92012  -14.43312    6.49855
       O     9.29639  -15.16733    5.96889
      H1     9.07065  -14.83528    5.08269
       H     9.12150  -16.34895   -1.78267
       O     8.67954  -17.03085   -1.18474
      H1     8.64171  -16.56397   -0.35402
       H     8.75510  -13.04681   -4.12700
       O     8.29555  -13.89637   -4.27874
      H1     8.38320  -14.15419   -5.23898
       H    10.35588  -18.09467   -1.54441
       O    11.19563  -18.54151   -1.60674
      H1    11.13008  -19.45542   -1.83659
       H     5.44646  -17.87226   -1.72956
       O     6.04312  -17.40500   -2.27691
      H1     6.78381  -17.15570   -1.74300
       H    16.91210  -12.61066   -3.44335
       O    16.71659  -12.19904   -2.60792
      H1    15.77222  -11.92470   -2.56982
       H    13.99499  -11.07638    0.46414
       O    13.95267  -10.19881    0.82046
      H1    13.35960  -10.25886    1.53401
       H     4.51737  -18.20726    3.45706
       O     4.63515  -19.01052    2.98215
      H1     4.03741  -18.98828    2.24744
       H    18.17045  -18.13708    1.72774
       O    18.41064  -18.67097    2.50198
      H1    17.70972  -19.29838    2.70232
       H     7.36254  -15.59646    1.84227
       O     8.22202  -16.00425    1.76490
      H1     8.88473  -15.42072    2.15604
       H    11.78334  -12.55565    3.35552
       O    11.05625  -12.01557    3.68249
      H1    11.37666  -11.23482    4.18238
       H     5.51419  -16.37603   -6.11003
       O     5.07767  -16.94727   -5.50397
      H1     4.76533  -16.34913   -4.77936
       H    14.98318  -17.07512   -6.46081
       O    14.86293  -17.97307   -6.10042
      H1    15.68241  -18.46584   -6.41955
       H     9.40097   -9.77496   -0.62569
       O     9.30277  -10.76138   -0.43077
      H1     9.39787  -11.22755   -1.30865
       H    14.69750  -18.79346   -0.68602
       O    14.68676  -17.81002   -0.78058
      H1    15.13363  -17.47623    0.05913
       H    12.82973  -13.34781   -0.65943
       O    12.19313  -13.50617   -1.41409
      H1    12.12301  -14.47410   -1.59537
       H     4.49817  -17.50162    0.67988
       O     4.76591  -16.61929    1.01022
      H1     4.43632  -15.97945    0.31882
       H     6.06080  -12.99895   -1.20755
       O     5.57743  -12.29299   -0.75309
      H1     6.20458  -12.07965    0.02776
       H     9.97816  -19.52033   -8.45414
       O    10.70712  -19.01545   -8.83002
      H1    11.55118  -19.44388   -8.59336
       H     8.37500  -13.28666    3.01483
       O     8.57310  -13.52105    3.90030
      H1     9.43405  -13.09693    4.01777
       H     7.03842  -14.18063   -2.95848
       O     6.55556  -14.29325   -2.08452
      H1     5.74125  -14.69382   -2.44830
       H    10.58899  -17.14856   -8.21976
       O    10.89907  -16.40695   -7.66025
      H1    10.04684  -15.91755   -7.43680
       H    17.97565  -18.87861   -6.27367
       O    17.20651  -19.34387   -6.72277
      H1    17.35840  -20.20659   -6.29623
       H    15.28446  -15.88575   -3.63466
       O    14.95209  -15.08172   -3.19820
      H1    13.98647  -15.21335   -3.05645
       H    15.60374  -14.60702   -6.15085
       O    16.00289  -15.27687   -6.71765
      H1    16.77417  -14.77384   -7.10157
       H     3.03376  -18.89789   -0.32431
       O     3.78246  -18.90459    0.27517
      H1     4.43662  -19.61115    0.01844
       H    16.87754  -16.06829    4.49810
       O    15.95457  -15.81827    4.17826
      H1    15.99271  -14.85831    4.07055
       H    10.06110  -16.25815   -4.94115
       O     9.61272  -16.30947   -4.10477
      H1     9.03530  -15.55812   -4.09168
       H    15.04507  -12.46593   -5.16241
       O    14.54286  -13.33513   -5.16273
      H1    14.80867  -13.83469   -4.38255
       H    11.26295  -16.17934   -3.19137
       O    11.89982  -16.01603   -2.49411
      H1    11.91676  -16.92823   -2.10016
       H     4.27010  -16.50475   -2.46429
       O     4.03463  -15.60849   -2.83390
      H1     3.25724  -15.34783   -2.30813
       H     6.55721  -19.19253    2.42333
       O     7.46485  -18.89093    2.48408
      H1     7.33881  -17.95897    2.65069
       H    13.87361  -18.31458    5.42525
       O    14.32478  -18.44438    6.25170
      H1    13.65394  -18.61084    6.96587
       H     6.63219  -17.62988    4.50678
       O     6.03793  -16.90765    4.33507
      H1     6.00424  -16.43791    5.13136
       H    16.73069  -16.71761    1.09091
       O    15.93003  -16.32414    1.35844
      H1    15.89636  -16.35987    2.34741
       H    10.73508  -19.64818    5.42260
       O    10.14024  -18.99644    5.83704
      H1    10.57534  -18.74541    6.67519
       H    13.43687  -17.42123    2.77211
       O    13.75842  -17.52967    3.64635
      H1    14.38958  -16.85131    3.76935
       H    13.32688  -17.25873    0.33467
       O    12.75887  -17.09469    1.09072
      H1    11.90796  -17.64494    1.02507
       H    18.11209  -17.02190   -0.72377
       O    17.95630  -17.68678    0.01081
      H1    17.80307  -18.58751   -0.41504
       H     9.31971  -12.85176    0.35277
       O     9.64075  -13.74557    0.20945
      H1    10.32461  -13.60048   -0.49870
       H     9.88593  -18.66126    0.48253
       O    10.18777  -18.46599    1.36643
      H1     9.43180  -18.18877    1.80826
       H    15.44655  -17.86769   -4.46574
       O    16.04462  -17.78883   -3.69445
      H1    15.45305  -17.88264   -2.88036
       H     7.81861  -15.15534   -7.16513
       O     8.65631  -14.85990   -6.78216
      H1     8.86716  -13.95175   -7.08759
       H    12.60178  -12.00095   -2.51890
       O    12.80080  -11.11224   -2.82384
      H1    12.05162  -10.90993   -3.42830
       H     3.79177  -19.74883   -5.10650
       O     3.92040  -19.24858   -5.91129
      H1     4.40681  -18.49782   -5.61330
       H     7.57472  -19.58284    4.23861
       O     7.51201  -19.43244    5.22384
      H1     8.46102  -19.23582    5.54320

