168
frame 9 | Written by MDAnalysis XYZWriter (release 2.4.3)
       H   -16.47892   -6.13625    9.29641
       O   -16.84971   -6.79357    8.66960
      H1   -17.29269   -6.27947    8.02167
       H   -13.11951  -12.45886    8.49309
       O   -13.47419  -12.96898    7.70384
      H1   -14.02738  -12.25675    7.24021
       H   -16.39740   -5.43884   -2.53853
       O   -16.45997   -4.56254   -3.00153
      H1   -17.20453   -4.63533   -3.72230
       H   -14.76777  -13.44750   -0.50881
       O   -15.20070  -13.83423   -1.29442
      H1   -15.97491  -14.20316   -0.88183
       H   -16.49449   -7.76139   -1.91799
       O   -16.42963   -6.88221   -1.50615
      H1   -15.55259   -6.66111   -1.24863
       H   -16.05058  -10.47461   -0.79062
       O   -16.52429   -9.88236   -0.17879
      H1   -15.96174  -10.05787    0.62283
       H   -19.02386  -13.61769    2.84276
       O   -19.52404  -12.88051    2.55164
      H1   -19.05501  -12.07448    2.78284
       H   -17.57256   -7.68829   10.01200
       O   -18.01064   -7.80415   10.89084
      H1   -18.91868   -7.71783   10.54058
       H   -17.23360  -16.14085    7.63909
       O   -18.12982  -16.38994    7.43657
      H1   -18.49540  -15.61265    6.90476
       H   -11.89819   -5.13494    3.25461
       O   -12.37286   -4.83168    4.03994
      H1   -11.86974   -5.11205    4.85682
       H   -17.73750  -14.59163   -3.78688
       O   -18.64361  -14.25635   -3.56225
      H1   -19.14686  -15.05202   -3.29141
       H   -17.49630   -9.99667    8.13282
       O   -16.91587   -9.34239    7.68663
      H1   -17.05179   -8.43221    8.06937
       H   -16.72671  -15.10441    3.70176
       O   -17.09829  -14.26106    3.37748
      H1   -16.47458  -13.55299    3.58360
       H   -18.27160   -6.70884   -1.29326
       O   -19.21425   -6.42450   -1.46057
      H1   -19.49724   -6.29406   -0.52005
       H   -19.45456   -1.49765    3.25205
       O   -18.93533   -1.20784    2.45978
      H1   -18.22308   -1.88459    2.36969
       H   -18.00836   -9.58094   -1.16546
       O   -18.53245   -9.60311   -1.96919
      H1   -19.43260   -9.70675   -1.71170
       H   -19.01420   -5.35311   -4.85729
       O   -18.23785   -4.80978   -5.05744
      H1   -18.54690   -3.93984   -5.30446
       H   -15.81461   -3.57311    2.69828
       O   -16.58385   -3.47049    2.16644
      H1   -16.55276   -4.16637    1.48038
       H   -18.85571  -14.37058    4.78950
       O   -19.26908  -14.09711    5.63341
      H1   -20.09703  -14.45453    5.64111
       H   -12.20742  -10.76313    2.39786
       O   -12.37789  -10.95524    1.45947
      H1   -12.32358  -11.92069    1.31529
       H   -13.34287  -13.44494    1.58176
       O   -14.25075  -13.13241    1.29352
      H1   -14.78015  -13.12606    2.08847
       H   -17.10347  -10.63796    2.76950
       O   -18.05494  -10.56363    2.99800
      H1   -18.08192  -10.78763    3.93906
       H   -11.32343   -9.83771    4.22930
       O   -12.27734   -9.89170    4.17827
      H1   -12.60364   -9.09035    4.55181
       H   -13.96898   -9.08871   -3.11640
       O   -13.34684   -8.32394   -3.11185
      H1   -13.07522   -8.17315   -4.06952
       H   -13.90113   -3.97894    4.03209
       O   -14.68892   -3.40517    4.13658
      H1   -15.15202   -3.76015    4.91402
       H   -17.23114  -14.40065    1.68575
       O   -17.44519  -14.28430    0.76125
      H1   -18.29231  -13.87774    0.73246
       H   -19.01560  -12.08031    5.50924
       O   -18.87870  -11.11764    5.60991
      H1   -19.75309  -10.78623    5.32549
       H   -15.80801   -9.54889   -4.12655
       O   -15.12695  -10.14156   -3.80672
      H1   -15.60728  -10.93819   -3.67161
       H   -19.08660   -9.10846    2.27028
       O   -19.44401   -8.33529    1.82681
      H1   -20.31902   -8.59590    1.37727
       H   -14.52462   -7.83951    6.07977
       O   -13.77936   -8.36314    6.45222
      H1   -13.88929   -8.33699    7.37793
       H   -17.91725  -12.40653   -3.22190
       O   -17.38755  -11.58933   -3.29440
      H1   -17.74603  -10.94520   -2.62905
       H   -14.88502   -9.15837    2.46612
       O   -14.96197  -10.08360    2.20456
      H1   -14.10381  -10.29663    1.85953
       H   -10.88947   -7.09065    6.30852
       O   -11.70160   -6.50194    6.29671
      H1   -12.38405   -7.17441    6.20148
       H   -17.75061  -15.71060   -0.41703
       O   -17.59214  -16.66812   -0.53669
      H1   -16.97225  -16.89657    0.15782
       H   -11.86324   -6.29251    1.27637
       O   -11.39303   -5.50492    1.63846
      H1   -10.48109   -5.68643    1.39352
       H   -19.01688   -4.37464    4.47365
       O   -18.97311   -3.86944    3.65583
      H1   -18.16683   -4.16636    3.16058
       H   -19.14354   -2.65490   -0.79023
       O   -19.07398   -3.03441    0.13580
      H1   -19.45240   -2.34729    0.67134
       H   -17.24397   -1.15502    5.60125
       O   -17.68508   -1.97338    5.93759
      H1   -17.70271   -2.41005    5.09552
       H   -18.54704   -3.17849   -2.81238
       O   -19.18858   -2.50880   -2.64858
      H1   -18.64392   -1.70213   -2.61750
       H   -15.42335  -11.33239    3.40309
       O   -15.69717  -11.85918    4.19040
      H1   -15.64950  -11.24819    4.91257
       H   -17.31723  -12.22379    8.88872
       O   -18.14762  -11.68008    9.07616
      H1   -18.04263  -11.37658    9.98587
       H   -19.09561   -9.49398    6.77162
       O   -19.61068   -8.68204    6.94140
      H1   -19.10072   -7.96473    6.59140
       H   -19.15376   -9.04681   -3.52368
       O   -19.41163   -8.67748   -4.40903
      H1   -19.80092   -7.75394   -4.28591
       H   -19.95455   -5.95228    9.07552
       O   -19.52715   -5.35098    8.47282
      H1   -19.39135   -4.46995    8.85814
       H   -14.07936   -7.51253    1.95311
       O   -14.74861   -7.37591    2.61878
      H1   -15.47316   -6.80334    2.19618
       H   -13.44217   -6.75792   -1.91382
       O   -13.89186   -6.41631   -1.10784
      H1   -13.76843   -5.41693   -1.09432
       H   -17.24473  -17.72758    5.02647
       O   -16.73186  -16.97715    4.68284
      H1   -16.72058  -16.36806    5.46247
       H   -17.69483   -8.41984   -4.89297
       O   -16.71689   -8.32740   -4.96845
      H1   -16.57518   -7.59270   -5.64448
       H   -17.81554   -7.00009    1.46127
       O   -17.07388   -6.35313    1.32329
      H1   -16.71486   -6.69087    0.47396
       H   -15.58962  -10.29947    6.76974
       O   -14.78555  -10.75936    6.47956
      H1   -14.21054   -9.99827    6.27638
       H   -14.32138  -13.36520    4.67401
       O   -14.11133  -14.29913    4.62060
      H1   -14.15670  -14.66112    5.53514
       H   -15.50297   -6.19024    5.68476
       O   -15.78765   -6.91229    5.14052
      H1   -15.26410   -7.02925    4.35335
       H   -13.75296   -4.64970    6.82801
       O   -14.71036   -4.92745    6.70382
      H1   -15.23312   -4.44137    7.32787
       H   -17.71096   -6.69107    5.16628
       O   -18.56163   -6.29725    5.42736
      H1   -19.18404   -6.57894    4.74906
       H   -13.09930   -7.65977   -0.06968
       O   -12.61381   -8.09689    0.65510
      H1   -12.40311   -8.98258    0.39280
       H   -15.98483   -3.30338   -1.72208
       O   -15.62914   -3.00571   -0.87131
      H1   -16.36931   -2.83109   -0.32032

