168
frame 7 | Written by MDAnalysis XYZWriter (release 2.4.3)
       H    -9.54444  -17.20491   -8.74794
       O    -9.11235  -16.79816   -9.50689
      H1    -8.62167  -17.55785   -9.85513
       H    -2.82045  -15.05003  -10.42509
       O    -3.58232  -15.51448  -10.72997
      H1    -4.38128  -14.94923  -10.61356
       H    -3.86353  -19.40242  -14.57917
       O    -4.76819  -19.05640  -14.62986
      H1    -5.14280  -19.00780  -13.71811
       H   -10.67031  -16.08237  -16.90929
       O   -11.41124  -15.79417  -16.31837
      H1   -11.14512  -14.95099  -15.89752
       H    -5.68157  -18.47679  -16.13647
       O    -6.27117  -18.10531  -16.82007
      H1    -6.60033  -18.88303  -17.27088
       H    -7.47073  -15.59164  -14.28759
       O    -7.88403  -16.06162  -13.49145
      H1    -7.30467  -16.85155  -13.30080
       H    -5.17536  -11.51326  -15.23795
       O    -4.90524  -12.37206  -15.04305
      H1    -4.03340  -12.37101  -15.48697
       H    -7.25370  -12.01885  -11.18195
       O    -7.36533  -11.56977  -11.98026
      H1    -6.47983  -11.37690  -12.30140
       H    -1.18059  -11.31973  -12.06586
       O    -0.47911  -10.66938  -11.98469
      H1    -0.35570  -10.28334  -12.85510
       H   -11.87323  -16.85521  -11.90721
       O   -11.31581  -16.20511  -11.46140
      H1   -10.75955  -16.62578  -10.76489
       H   -10.88179  -10.73597  -13.32572
       O   -11.50299  -10.95496  -14.03362
      H1   -11.11487  -11.72788  -14.40751
       H    -3.70032  -16.87058  -13.90687
       O    -4.15566  -16.00964  -13.66702
      H1    -3.87746  -15.75996  -12.76469
       H    -9.03714  -13.98860  -11.83175
       O    -9.90114  -13.92523  -12.18019
      H1   -10.33779  -14.78882  -11.94805
       H    -7.16404  -15.44702  -11.96417
       O    -6.80327  -15.00538  -11.14950
      H1    -6.34923  -14.22486  -11.59091
       H   -10.53361  -13.06946  -10.59270
       O   -10.67680  -12.80691   -9.66936
      H1   -10.36357  -13.60654   -9.28524
       H   -13.12351  -17.42584  -14.66712
       O   -12.32897  -17.09709  -14.24479
      H1   -11.92177  -16.61769  -15.00900
       H   -10.68389  -15.77067   -6.97096
       O   -10.44367  -14.80431   -7.04420
      H1    -9.79080  -14.57595   -6.29220
       H    -7.94184   -9.43647  -15.89182
       O    -7.92820   -9.40352  -14.89570
      H1    -8.12479   -8.49444  -14.63428
       H    -1.83180  -14.54084   -6.03479
       O    -2.17161  -13.62451   -5.85859
      H1    -2.99868  -13.76740   -5.30729
       H    -7.30158  -18.79709   -5.59907
       O    -6.53786  -18.15523   -5.52075
      H1    -6.34264  -17.78958   -6.42503
       H    -5.76014  -15.37365  -14.76318
       O    -6.18328  -14.89937  -15.50709
      H1    -5.61055  -14.13945  -15.62075
       H    -9.91038  -13.31584  -14.17155
       O   -10.18776  -13.18221  -15.07396
      H1    -9.40340  -12.97759  -15.54227
       H    -5.39400  -16.71689   -7.77715
       O    -6.06831  -17.20838   -8.25327
      H1    -6.76874  -16.57046   -8.21877
       H    -0.84692  -17.14358  -12.79007
       O    -1.39269  -17.71171  -12.19660
      H1    -0.84824  -17.73622  -11.34953
       H    -4.90311  -10.13408  -12.84091
       O    -4.80776  -10.65222  -11.99607
      H1    -4.14223  -10.21141  -11.44596
       H    -5.90273  -18.53882  -11.92530
       O    -6.53144  -18.52701  -12.63218
      H1    -7.07679  -19.28035  -12.45844
       H    -5.25907  -13.25582  -12.95180
       O    -5.03073  -13.20769  -12.02177
      H1    -4.96274  -12.21924  -11.94490
       H    -9.01351  -10.74615  -12.06408
       O    -9.94977  -10.60441  -11.89801
      H1    -9.98838   -9.63991  -11.76562
       H    -7.45595   -9.56616  -11.06964
       O    -7.83704   -9.00345  -10.34856
      H1    -7.03221   -8.78378   -9.88273
       H    -2.86318  -12.81834  -17.61112
       O    -3.65491  -13.35040  -17.70493
      H1    -3.60310  -14.21687  -17.26148
       H    -9.87435  -10.95557   -6.48432
       O    -9.71277  -11.33278   -5.62845
      H1   -10.52439  -11.15081   -5.11527
       H    -8.68813  -15.18866   -4.51800
       O    -8.63350  -14.29711   -4.94181
      H1    -9.26245  -13.76687   -4.37849
       H    -3.75443  -14.64518   -6.97800
       O    -4.47910  -15.33503   -6.84098
      H1    -5.18224  -14.79965   -6.45926
       H    -2.56008  -12.71536   -9.90728
       O    -1.91559  -12.98639  -10.55920
      H1    -1.06541  -12.97427  -10.13893
       H    -3.42679   -9.37950  -17.27258
       O    -3.23422   -9.81859  -16.43510
      H1    -3.72089   -9.37015  -15.75315
       H     0.98734  -16.56270  -13.23089
       O     0.21799  -16.11052  -13.66329
      H1     0.08691  -15.23425  -13.25809
       H    -6.05560   -9.48665  -14.64812
       O    -5.17555   -9.33743  -14.35054
      H1    -5.04255   -8.39296  -14.07141
       H    -2.80568  -16.31769   -6.41464
       O    -2.11127  -16.47659   -5.81065
      H1    -1.45553  -16.91871   -6.31766
       H   -12.66638  -12.96863  -12.34354
       O   -13.05073  -13.83949  -12.60310
      H1   -12.44092  -14.49728  -12.25616
       H    -3.44769  -11.41126   -8.43782
       O    -4.07544  -12.04267   -8.79950
      H1    -4.91887  -11.58716   -8.64193
       H    -2.06315   -9.89619   -8.62197
       O    -1.60219  -10.54615   -8.13605
      H1    -1.80656  -10.28921   -7.17180
       H    -2.14488  -15.78264  -16.30449
       O    -2.63939  -15.07924  -15.81170
      H1    -3.23031  -15.46776  -15.11941
       H    -2.66237  -13.44074  -13.69289
       O    -2.02207  -13.02981  -13.16508
      H1    -2.36330  -13.07703  -12.25884
       H    -8.06981  -15.09332   -8.99689
       O    -7.85000  -14.80794   -8.04471
      H1    -8.69886  -15.03866   -7.58159
       H    -6.60631  -16.49534  -18.02488
       O    -7.11887  -15.72453  -18.06832
      H1    -7.12531  -15.49511  -17.15329
       H    -6.54184  -13.90747  -18.63456
       O    -6.22522  -12.98462  -18.75373
      H1    -5.34958  -12.98162  -18.30624
       H   -10.69996  -17.93716  -14.02824
       O    -9.77408  -18.21916  -13.89851
      H1    -9.28772  -17.40044  -13.72711
       H   -11.80566  -10.49764   -9.66235
       O   -12.63657  -10.04768   -9.79477
      H1   -13.27687  -10.67214   -9.50176
       H    -7.10859  -13.14251   -5.55764
       O    -6.26091  -12.96768   -6.03963
      H1    -6.32597  -12.00848   -6.18181
       H     0.77154  -12.82444  -14.11979
       O     0.63060  -13.28467  -13.24162
      H1    -0.34694  -13.08486  -13.19677
       H    -4.16605  -17.35744  -10.67796
       O    -4.71085  -18.14655  -10.53735
      H1    -5.28052  -17.93157   -9.79364
       H    -7.41355  -12.26624  -17.68418
       O    -8.19030  -12.02536  -17.14638
      H1    -8.23097  -11.09811  -17.28501
       H    -2.79093   -8.11514   -9.96863
       O    -3.40952   -8.86884   -9.83186
      H1    -4.24922   -8.48189   -9.55133
       H    -9.07861   -9.91901   -9.24845
       O    -9.69168  -10.31762   -8.61035
      H1   -10.01159  -11.16262   -8.94326
       H    -7.58879  -12.88578   -8.58965
       O    -7.29266  -12.06343   -9.00021
      H1    -8.00632  -11.36549   -8.81984
       H    -3.54490  -19.29707   -9.26316
       O    -3.15729  -19.97794   -8.70757
      H1    -3.44906  -19.91923   -7.79628

