168
frame 5 | Written by MDAnalysis XYZWriter (release 2.4.3)
       H     9.27335  -12.09307    8.24962
       O     9.35659  -13.03550    8.11296
      H1     8.68420  -13.59859    8.49566
       H    11.84530  -17.15133   12.44810
       O    12.35911  -17.45588   11.67251
      H1    11.71311  -17.47899   10.98056
       H     5.86741  -10.07690    8.64667
       O     6.27789  -10.68983    9.22152
      H1     7.18995  -10.44021    9.42180
       H     7.26245  -17.88234   14.07970
       O     7.29683  -16.89125   14.16268
      H1     6.54724  -16.56648   13.63919
       H     7.77043  -17.31738   17.14012
       O     8.65517  -16.97871   17.10829
      H1     8.60505  -16.02231   16.84969
       H    -1.11600  -18.52255   16.75406
       O    -0.78231  -19.41513   16.61185
      H1     0.01815  -19.47470   17.12198
       H     9.04739  -13.61428   13.41380
       O     9.34322  -14.29400   14.05047
      H1     8.63414  -14.41353   14.69669
       H     8.38788  -11.22790   11.43438
       O     8.80330  -10.79727   10.65469
      H1     9.19186   -9.95777   10.95118
       H     7.37758  -20.12247   14.87721
       O     6.87308  -19.45592   14.43281
      H1     6.29630  -19.09010   15.11446
       H    12.63297  -13.56928   14.74687
       O    11.95800  -13.43660   15.42049
      H1    11.07348  -13.57770   15.01258
       H     0.00447  -12.77947   12.58240
       O     0.48250  -12.88706   11.75949
      H1     0.28436  -12.08888   11.21867
       H     2.53926  -20.11453   13.95280
       O     2.32123  -19.15560   14.14895
      H1     2.87831  -18.90117   14.84686
       H     5.51655  -14.24447   19.90980
       O     6.10698  -14.93749   19.48011
      H1     6.19997  -14.56831   18.61316
       H     5.00780  -12.64970   11.71438
       O     5.74166  -13.29404   11.92586
      H1     6.13592  -13.48938   11.09640
       H    10.22737  -15.93034   13.84834
       O    10.77487  -16.71186   13.97257
      H1    10.51326  -17.20234   14.76497
       H     4.15203  -19.96158    8.71397
       O     4.35637  -19.20805    9.32670
      H1     5.30298  -19.35908    9.53211
       H     5.47108  -12.29895    8.92148
       O     4.93969  -13.11444    8.98612
      H1     5.65698  -13.75648    9.09387
       H     7.80085  -17.68190   11.25414
       O     8.05069  -16.77821   11.36432
      H1     8.31139  -16.60500   12.26659
       H     2.86288  -17.19301    6.99118
       O     3.45396  -16.99379    7.76714
      H1     3.69027  -17.84972    8.09575
       H     0.01163  -18.63315    9.07570
       O    -0.81758  -18.14318    9.34935
      H1    -0.56724  -17.22695    9.47645
       H     4.47471  -19.79935   16.01709
       O     4.44521  -18.84073   16.08364
      H1     4.80780  -18.63974   16.98352
       H     4.92933   -9.15825   14.65291
       O     5.47438   -8.95175   13.88165
      H1     5.02644   -9.18204   13.08525
       H     7.16610  -15.46808   15.51852
       O     7.57463  -14.67638   15.88753
      H1     6.82481  -14.08964   16.05331
       H    10.09445  -17.25773    9.01449
       O    10.00562  -17.75499    9.83158
      H1     9.35538  -17.34522   10.36448
       H     1.13799  -10.28735    9.70247
       O     0.30155  -10.58315    9.46796
      H1     0.39757  -11.26753    8.78555
       H    -0.92150  -11.11615   13.47091
       O    -0.65893  -11.92036   13.96043
      H1    -0.87467  -11.64469   14.88930
       H     1.44531  -16.35308   19.99186
       O     0.68135  -16.23760   19.37996
      H1     1.18755  -16.27683   18.55318
       H     6.05382  -11.68433    6.40978
       O     5.28693  -12.22216    6.22761
      H1     4.95907  -12.49436    7.10828
       H     3.81359   -9.40189   16.66068
       O     4.36258   -9.99010   16.07290
      H1     5.06382  -10.29309   16.59681
       H     8.02317  -11.30242   13.52599
       O     8.03941  -12.07453   12.97821
      H1     7.14446  -12.35048   12.86297
       H     2.86095  -18.55935   12.35997
       O     3.46288  -18.10513   11.82358
      H1     3.30597  -18.48256   10.96655
       H     5.96883  -16.80837   18.74558
       O     6.18472  -17.65053   18.29167
      H1     5.91691  -18.39949   18.92841
       H    -3.12036  -14.63371   13.17872
       O    -2.30400  -15.12508   13.14286
      H1    -2.36179  -15.43593   12.23226
       H    10.12849  -18.01481   16.67722
       O    11.09643  -18.23485   16.59419
      H1    11.45640  -17.31464   16.64734
       H     3.24154   -9.45555   10.81808
       O     2.35198   -8.99182   10.75942
      H1     2.50524   -8.18863   10.23066
       H     0.46963  -17.45626    7.34588
       O     0.85598  -17.30814    6.51396
      H1     0.72713  -16.36772    6.32583
       H     5.33965  -10.34482   10.64862
       O     4.84355  -10.15843   11.42737
      H1     4.38080  -10.87231   11.73534
       H    10.28872  -18.04113   19.65467
       O     9.37515  -17.79609   19.61175
      H1     9.16556  -17.61738   18.63666
       H     0.67955  -13.92094   14.79092
       O     0.38229  -14.85975   14.84091
      H1    -0.34093  -14.91054   14.16962
       H     1.64099  -17.36207   16.79146
       O     1.79435  -16.39837   16.78740
      H1     1.19305  -15.96215   16.11024
       H     2.36595  -16.11423    9.05076
       O     1.60584  -15.76707    9.60202
      H1     1.90023  -15.44909   10.46774
       H     3.43615  -13.18793   15.84522
       O     3.00629  -12.52908   16.36552
      H1     3.33264  -11.65488   16.17139
       H     5.61324  -11.85250   17.69589
       O     5.50072  -12.76640   17.35028
      H1     4.56388  -12.80524   17.07654
       H     8.34249   -9.20466   15.55908
       O     8.14968   -9.46473   14.63722
      H1     7.31563   -9.04516   14.41218
       H     6.84609  -15.36987    8.39493
       O     7.23436  -14.78360    9.08200
      H1     7.54853  -15.45195    9.71489
       H     3.61707  -15.40049   16.02718
       O     4.27809  -14.84132   15.60105
      H1     4.32567  -15.05934   14.64587
       H     1.44780  -19.48561   18.42659
       O     1.62929  -19.14012   17.54194
      H1     2.38977  -19.67501   17.21704
       H     0.25878  -18.90553   13.95633
       O    -0.57563  -19.37348   14.02974
      H1    -0.65389  -19.52845   15.03045
       H     2.19944  -12.55081   11.35015
       O     3.11186  -12.27683   11.14510
      H1     3.20949  -12.40968   10.20227
       H     6.31322  -19.22054   12.76188
       O     5.90924  -19.23630   11.87218
      H1     5.03161  -18.84709   11.92125
       H     9.81894  -16.05521    7.14935
       O    10.53089  -16.38681    7.64777
      H1    11.32976  -15.97677    7.46675
       H     5.31601  -15.17591   12.45072
       O     5.01474  -15.79063   13.06907
      H1     4.37193  -16.41278   12.74150
       H     0.03807  -15.10405   10.20716
       O    -0.83816  -14.92398   10.52103
      H1    -0.63938  -14.16527   11.10608
       H     1.35480  -13.36989   17.60615
       O     0.63460  -12.94973   18.15627
      H1     1.16707  -12.79423   18.96441
       H     6.26306  -16.37222    6.68820
       O     6.36551  -16.77336    7.57507
      H1     5.45176  -17.08285    7.61000
       H    10.51771  -19.88135   13.68445
       O    10.01192  -19.38692   13.01652
      H1    10.27034  -18.47927   13.07740

