168
frame 11 | Written by MDAnalysis XYZWriter (release 2.4.3)
       H    17.24714   16.34868    3.17596
       O    17.21331   16.35840    2.22092
      H1    16.53768   15.69298    2.06485
       H    18.15650    6.93991    8.25476
       O    18.66076    6.14337    8.49524
      H1    19.32583    6.04123    7.83304
       H    15.38342   12.55331    5.05494
       O    16.14826   12.34396    4.43868
      H1    15.88451   11.54325    4.02779
       H    14.00902   19.63688   11.97806
       O    14.12049   18.97995   12.66636
      H1    13.49474   18.24365   12.45287
       H    14.13884   14.77025    3.52743
       O    13.40659   15.25205    4.01978
      H1    13.98852   15.99509    4.44328
       H    13.77079    9.73730    1.72993
       O    13.03141    9.30762    1.20998
      H1    13.50167    8.96150    0.39320
       H    20.11501   14.93919    3.58381
       O    19.92047   15.18239    2.67284
      H1    18.94916   15.14806    2.71971
       H    17.70803   18.08653   13.20328
       O    18.27567   17.36661   13.55872
      H1    19.11762   17.51865   13.04291
       H    16.44829   11.84673   12.92121
       O    16.94497   11.79459   13.76624
      H1    17.63193   12.47766   13.73610
       H    16.07073   13.58924    3.26283
       O    15.60326   14.11782    2.55354
      H1    15.53983   13.58568    1.76443
       H    10.99100    9.66336   11.48951
       O    11.43191   10.45813   11.82833
      H1    11.87341   10.87534   11.07076
       H    19.08240    7.59371   11.00452
       O    18.56752    6.82342   11.16717
      H1    18.56764    6.37885   10.22198
       H    12.92225   12.27193    9.47989
       O    12.01577   12.13150    9.19588
      H1    11.47486   12.72398    9.74849
       H    13.91433   17.27889    8.65718
       O    13.75671   17.95537    9.34675
      H1    14.56616   18.48709    9.48870
       H    14.57887   12.26534   11.63470
       O    15.36687   11.66475   11.43272
      H1    15.44084   11.56811   10.41288
       H    14.08513    9.67215   13.73996
       O    13.15889    9.82047   14.00427
      H1    12.70774    9.80468   13.14399
       H    12.66971   18.80819    3.69582
       O    13.20357   19.04970    2.92492
      H1    13.19810   20.02625    2.98273
       H     9.30292   16.28870   10.96834
       O    10.05114   16.06804   10.31112
      H1    10.84142   16.48992   10.74150
       H    12.59562    8.00811    6.93848
       O    13.32596    8.43764    6.44654
      H1    13.05760    9.34295    6.30785
       H     9.81740   17.43915    9.14372
       O     9.85159   18.22934    8.63012
      H1     8.86458   18.45953    8.48419
       H    17.30938    8.15078    4.86496
       O    16.74299    8.52489    4.19486
      H1    15.99236    7.88489    4.18805
       H    15.32799   15.90456    9.62145
       O    16.20900   16.32511    9.61312
      H1    16.70900   15.98676   10.38777
       H    17.86341   12.15629    5.44464
       O    18.23217   11.87557    6.28533
      H1    19.19094   12.00170    6.26555
       H    16.22562    8.59062    7.95755
       O    16.46379    7.76647    8.36021
      H1    15.63624    7.32554    8.58327
       H    10.98624   10.46457    4.84653
       O    10.69250   10.00024    4.00925
      H1     9.74191    9.84227    4.17145
       H    12.99326   15.97865    7.25896
       O    13.96260   15.95201    7.54718
      H1    14.42956   16.46744    6.88164
       H    12.67943   15.84305    2.38060
       O    12.27865   15.54129    1.54230
      H1    12.22631   16.38557    1.05823
       H     9.06871   13.38614    5.04122
       O     9.05224   12.61069    4.43348
      H1     9.96591   12.46685    4.21256
       H    16.65588   18.07687    2.16925
       O    16.25205   18.96762    2.14608
      H1    15.33082   18.75788    2.50390
       H    17.05345   14.83441    8.10789
       O    16.68961   14.05677    7.68172
      H1    17.41801   13.43890    7.80106
       H    13.90695    7.17568    3.31519
       O    14.13781    6.98103    4.22779
      H1    13.75064    7.63708    4.83075
       H    13.56122   13.60375    5.77226
       O    14.10871   12.85019    6.07247
      H1    14.11062   12.90871    7.07945
       H    19.73838   14.08589   13.40401
       O    19.01680   13.78789   13.97624
      H1    19.44985   13.96136   14.79927
       H     9.16486   15.05189    6.65484
       O     9.59506   14.98512    5.80932
      H1     9.04709   15.61610    5.26106
       H    11.35919   19.93354    8.38576
       O    12.30389   19.98348    8.18689
      H1    12.72918   19.15071    8.37155
       H    15.63984   19.66639    5.83950
       O    16.47080   19.18746    5.55549
      H1    17.14506   19.88847    5.80368
       H    15.57338   12.91102    8.38835
       O    15.12909   12.09122    8.61282
      H1    15.42889   11.49354    7.95321
       H    15.29997    9.29874    6.34428
       O    15.52992   10.15543    6.73027
      H1    16.33660   10.45028    6.26289
       H    11.46070   17.72191    5.44277
       O    11.33394   18.27723    4.60692
      H1    10.53210   17.89322    4.27518
       H    11.66936   11.08255    7.17791
       O    12.12620   10.87088    6.34693
      H1    12.75504   11.55813    6.12581
       H    15.27486   15.70139   12.87956
       O    14.31472   15.70059   13.14174
      H1    13.95392   14.84764   12.76314
       H    11.05160   17.46779    7.29719
       O    11.53319   16.83049    6.78633
      H1    10.85831   16.14923    6.53286
       H    10.72569   14.56783   10.76420
       O    11.18942   13.80999   11.09539
      H1    10.43706   13.27688   11.39725
       H    18.46785   10.93217   11.56705
       O    18.17622   11.65194   10.90947
      H1    17.26336   11.72418   11.20836
       H    18.75086   15.76159    5.55337
       O    17.99211   15.42215    5.07974
      H1    17.87859   14.56470    5.52540
       H    17.56944   17.51064    8.93775
       O    18.42662   17.78117    8.62741
      H1    18.35308   18.64589    8.32827
       H    13.36788   16.51907   12.01360
       O    12.57285   16.96319   11.59457
      H1    12.96950   17.29876   10.75461
       H    14.97865   15.81374   14.63678
       O    15.33490   15.90438   15.55904
      H1    16.24574   16.25447   15.58058
       H    16.03891   16.16886    5.30852
       O    15.30686   16.79103    5.33781
      H1    15.68719   17.70456    5.36814
       H    14.44379   11.90488    0.46484
       O    15.30307   11.45745    0.32499
      H1    15.22750   11.02295   -0.55802
       H    15.98802   12.82666   15.32657
       O    15.58294   13.24675   16.08745
      H1    15.65844   14.20651   15.96048
       H    12.64370   13.41519   12.03865
       O    13.50727   13.33121   12.49092
      H1    13.37002   12.80945   13.28023
       H    15.58435   10.61357    1.82131
       O    15.32088   10.34622    2.72337
      H1    15.94693    9.77250    3.14089
       H    12.43102   13.76252    3.44679
       O    11.94393   12.91595    3.53925
      H1    12.41474   12.21310    3.08314
       H    17.45526   15.99045   13.01865
       O    17.00541   15.29045   12.53916
      H1    17.46920   14.48466   12.81234
       H    15.74058    8.43317   12.99150
       O    15.71054    9.05729   13.76358
      H1    16.25321    9.79635   13.45272

