168
frame 1 | Written by MDAnalysis XYZWriter (release 2.4.3)
       H    -0.66206  -17.82393   18.95503
       O     0.31333  -17.56523   18.98866
      H1     0.80608  -18.23446   18.49507
       H    -5.49731  -16.06603   14.60038
       O    -4.98244  -16.48237   13.88801
      H1    -4.80624  -15.69891   13.25681
       H     0.32616  -12.32039   11.33431
       O     0.08798  -12.93277   10.60934
      H1    -0.42893  -12.32965   10.14093
       H     1.05255   -7.69493   14.02357
       O     1.55069   -7.19431   14.70367
      H1     2.42553   -7.16734   14.31686
       H    -1.94658  -16.13676   13.76794
       O    -2.12986  -16.70173   14.52507
      H1    -2.88597  -17.19488   14.16459
       H    -2.62219  -11.60296   18.70503
       O    -3.57374  -11.43107   18.54030
      H1    -3.60506  -11.27549   17.55550
       H    -1.66782  -15.78394   17.29562
       O    -2.56827  -16.23846   17.27732
      H1    -2.68708  -16.51440   16.39331
       H    -0.43568  -12.96485   18.22294
       O    -0.84105  -12.10746   18.21558
      H1    -0.86158  -11.84813   17.33204
       H    -3.33983   -9.88040   11.38436
       O    -2.86448  -10.45883   10.79174
      H1    -3.60172  -10.74786   10.19551
       H    -8.10025   -8.50312   15.45012
       O    -7.16151   -8.23915   15.35127
      H1    -6.61502   -9.02649   15.37492
       H    -2.61343  -11.71212   11.86983
       O    -2.54050  -12.34195   12.64255
      H1    -3.27913  -12.94818   12.69254
       H    -4.34764  -13.06391   15.52805
       O    -4.08525  -12.11014   15.42614
      H1    -3.60409  -12.12115   14.58351
       H    -3.46669   -8.73238   16.27281
       O    -3.90776   -8.81316   17.11673
      H1    -3.14072   -8.93625   17.76862
       H    -3.59510   -8.37259   13.37381
       O    -4.18951   -8.51576   12.58815
      H1    -3.85104   -7.73303   12.05441
       H    -2.68874  -17.91161   19.88963
       O    -2.47247  -18.27477   18.98229
      H1    -2.70247  -17.50928   18.41056
       H    -0.78946  -10.26381   14.67634
       O    -0.87151  -11.21616   14.58780
      H1    -1.57679  -11.44449   14.01773
       H    -8.92118   -9.28623   17.79404
       O    -8.41846   -8.48538   18.05729
      H1    -7.56505   -8.74057   18.46376
       H    -5.32555   -9.29484   18.06791
       O    -6.14471   -9.46954   18.60323
      H1    -6.67454  -10.27603   18.37542
       H    -4.32724  -14.33586   11.59322
       O    -4.60845  -14.01393   12.49381
      H1    -5.41345  -13.49793   12.36644
       H    -0.36095   -8.21625   12.01255
       O    -0.18820   -8.44192   12.92565
      H1     0.03129   -9.40817   12.89276
       H     3.49094  -11.23107   14.63505
       O     4.20287  -11.03984   13.99285
      H1     3.97866  -11.34163   13.12140
       H     0.49545  -11.75341   13.60847
       O     1.36901  -11.73022   13.12285
      H1     1.58286  -12.69860   13.21830
       H    -0.06407  -15.57573   18.70260
       O    -0.26841  -14.93164   17.98136
      H1     0.52169  -14.79250   17.47497
       H    -7.43270  -11.25788   13.85877
       O    -7.84997  -11.23460   12.98051
      H1    -7.47157  -10.36023   12.65398
       H     2.37185  -10.53524   16.77082
       O     2.72252  -11.29055   16.22179
      H1     3.41764  -11.72174   16.70037
       H     6.66743   -9.20104   18.83467
       O     6.68810   -8.96965   17.89601
      H1     7.17416   -9.73337   17.60020
       H     2.58221  -13.15832   18.73299
       O     3.32207  -12.57148   18.95124
      H1     2.85778  -11.93767   19.49980
       H     5.17906  -17.17244   18.77769
       O     4.86555  -18.05975   18.40028
      H1     4.64156  -18.63144   19.13319
       H    -0.95876  -13.88536   12.95469
       O    -0.68617  -14.83287   12.98557
      H1    -0.78325  -15.26988   12.12286
       H    -5.61012  -11.22996   15.54610
       O    -6.46139  -10.79393   15.41579
      H1    -6.96318  -11.03458   16.22626
       H     2.25747  -10.65751   10.93649
       O     1.98498  -10.21821   10.15273
      H1     2.31837   -9.32627   10.30107
       H     4.38498   -7.43991   12.64739
       O     3.87965   -7.80130   13.39627
      H1     4.21761   -8.68363   13.59538
       H     5.17897   -7.91717   17.35433
       O     4.72172   -7.17649   16.96512
      H1     4.96693   -6.37985   17.47169
       H    -1.54559   -4.93923   18.86340
       O    -2.41756   -4.92170   19.25508
      H1    -2.40255   -5.54696   20.01318
       H     2.55404  -14.93458   12.85866
       O     1.99208  -14.36724   13.35131
      H1     1.10414  -14.68196   13.27746
       H    -3.07039   -7.47940   14.78005
       O    -2.49987   -8.28523   14.88190
      H1    -1.72756   -7.95642   14.40026
       H     0.34901   -4.58782   12.45436
       O     0.67530   -4.53075   13.34950
      H1     0.90914   -5.43466   13.59873
       H     2.80558  -17.65637   15.79325
       O     2.58393  -17.49628   14.85964
      H1     3.12459  -16.77877   14.51716
       H    -1.17181   -7.52583   17.84619
       O    -1.31638   -8.43567   18.13093
      H1    -0.44768   -8.73560   17.79769
       H     4.92068  -14.23873   15.25291
       O     4.78056  -14.49858   16.16927
      H1     3.83668  -14.52253   16.17077
       H    -3.16214   -4.51859   15.94025
       O    -2.56655   -3.84592   16.20222
      H1    -3.02043   -3.24809   16.83888
       H    -1.28692   -5.32731   16.61897
       O    -0.61839   -5.97733   16.99420
      H1     0.17236   -5.92287   16.44683
       H     0.82092   -4.96859   18.07636
       O     1.24764   -4.25117   18.54530
      H1     1.18358   -3.53971   17.88809
       H    -5.68336  -13.86753   19.34102
       O    -5.78793  -13.01883   18.86434
      H1    -4.92936  -12.55180   18.83308
       H     7.05891  -13.41854   17.83892
       O     6.57388  -14.25505   17.98310
      H1     5.70234  -14.06619   17.51562
       H     7.39252  -10.39944   13.89718
       O     6.75385  -10.41180   13.18576
      H1     5.88333  -10.64157   13.58076
       H    -5.21885  -14.53603   17.12106
       O    -5.51145  -14.59838   16.20062
      H1    -6.44935  -14.40592   16.19091
       H    -4.33884   -7.05385   17.77542
       O    -4.36273   -6.09552   17.82757
      H1    -3.51219   -5.84829   18.31082
       H    -2.16942  -18.94363   14.09199
       O    -2.58158  -19.26922   13.31097
      H1    -2.33848  -20.21108   13.39373
       H     3.25465  -18.52866   17.77608
       O     2.37998  -18.72759   17.46410
      H1     2.38460  -19.64466   17.17846
       H     0.83758  -20.02897   14.08599
       O     0.48011  -19.95480   14.96963
      H1     0.51374  -18.98739   15.14726
       H    -4.44180   -5.98464   14.33071
       O    -3.81505   -5.87872   15.00677
      H1    -4.30867   -5.96198   15.80492
       H    -8.86564  -12.06519   17.26381
       O    -8.02468  -11.73215   17.65828
      H1    -7.45921  -12.52936   17.71138
       H     4.70226  -15.34434   12.57381
       O     4.19105  -16.01912   13.05021
      H1     4.13090  -16.89259   12.55702
       H     1.48306   -8.53251   16.09609
       O     1.04572   -8.90838   16.81074
      H1     1.31580   -8.49047   17.60761
       H     1.58348  -14.88770   15.96483
       O     1.86084  -14.22514   16.60159
      H1     1.98280  -13.38107   16.06808

