168
frame 10 | Written by MDAnalysis XYZWriter (release 2.4.3)
       H    -2.86918   10.51408    9.33595
       O    -2.30402   10.73327    8.59034
      H1    -2.49273   11.69523    8.52760
       H   -10.94912    7.35355   12.74555
       O   -11.29913    6.84175   13.49003
      H1   -12.11332    7.15323   13.79259
       H   -13.65486   10.72287   11.62576
       O   -14.45024   10.34153   12.07741
      H1   -15.31788   10.64406   11.73913
       H   -10.03515   13.69790   17.12519
       O    -9.35808   13.15689   17.41223
      H1    -9.58735   12.84165   18.30467
       H    -9.89699   11.36143   13.77656
       O    -9.90799   12.30999   14.07631
      H1    -9.02628   12.60605   13.91334
       H   -11.40743   14.82952   15.06959
       O   -11.76458   14.30605   14.30202
      H1   -11.14288   13.55464   14.10864
       H   -11.42143   15.17538   18.79212
       O   -12.25395   14.71042   18.82667
      H1   -12.47268   14.35170   17.96778
       H   -12.85158   12.81696   16.89257
       O   -13.23784   12.96687   16.00775
      H1   -12.58152   13.35819   15.37460
       H    -9.78089   16.61740    6.94056
       O    -9.69712   15.89334    7.56870
      H1    -9.64710   15.14808    6.95017
       H    -5.43204   15.80496   12.53194
       O    -5.77695   15.34697   13.31652
      H1    -6.61214   14.95401   13.05542
       H   -10.19431   16.66978   12.02262
       O   -10.04495   15.72390   12.14477
      H1   -10.63949   15.28665   11.48093
       H    -7.32794   14.33632    7.09368
       O    -7.19593   15.20758    6.68811
      H1    -7.92791   15.65200    7.18967
       H   -13.22034   17.12578    9.22622
       O   -13.95253   17.81348    9.40199
      H1   -14.21525   17.66068   10.30624
       H    -9.50778   18.49412   18.17578
       O    -9.15333   17.90856   18.87226
      H1    -8.56982   17.32895   18.39266
       H    -9.40826    7.69543   10.92254
       O   -10.02431    8.12970   11.53583
      H1    -9.50876    8.71724   12.13469
       H   -11.61996   18.42061   17.22633
       O   -12.30473   17.78911   17.61982
      H1   -12.02649   17.74229   18.54718
       H    -8.84687   14.36249   12.55615
       O    -8.09730   13.93724   13.06091
      H1    -7.96276   13.16910   12.44119
       H   -10.59674    9.56052   17.51564
       O   -11.48202    9.34646   17.91712
      H1   -11.63987    8.38006   17.78514
       H   -13.77079   15.49180   11.52620
       O   -14.56424   15.85168   11.96539
      H1   -14.81759   15.14986   12.63921
       H    -4.84117   14.54551   18.02895
       O    -4.47034   14.04990   17.30077
      H1    -3.71848   13.65781   17.63071
       H   -13.76723   11.39896   14.90604
       O   -14.13560   10.52700   14.75505
      H1   -14.21736   10.39633   13.80474
       H    -7.04589    9.95472   17.87870
       O    -7.56941    9.17837   17.92918
      H1    -7.95518    9.39342   18.83882
       H    -6.61012   11.78036   13.10822
       O    -7.23035   11.48858   12.39562
      H1    -6.63422   11.53799   11.59070
       H   -10.17316   16.38240   16.30467
       O   -10.90599   15.72266   16.39146
      H1   -11.60141   16.27691   16.80999
       H   -12.07236   14.53600   12.33809
       O   -12.27489   14.18279   11.49209
      H1   -12.57667   13.28690   11.70843
       H    -1.80308    9.38860   12.14282
       O    -2.71731    9.17921   12.52174
      H1    -2.69844    9.55374   13.39240
       H    -8.35879   17.58227   14.94561
       O    -9.30269   17.77262   15.00613
      H1    -9.61609   18.10538   14.13123
       H    -4.75883    8.44392   10.17949
       O    -4.25751    9.29253   10.18074
      H1    -4.08853    9.42876   11.13510
       H   -10.05626    8.49046   15.85494
       O   -10.09095    7.52392   16.13880
      H1   -10.63201    7.22980   15.38493
       H   -12.66740   14.83126    8.63280
       O   -12.31761   15.68786    8.49047
      H1   -11.33342   15.57882    8.27916
       H    -6.70096    7.48457   15.23731
       O    -6.15866    7.86780   14.55203
      H1    -5.32391    8.12296   15.05141
       H    -1.22847   15.12579   16.62741
       O    -1.42532   14.55761   15.85248
      H1    -2.11277   15.11562   15.33765
       H    -9.57858   11.10521   15.99173
       O    -9.45687   10.21688   16.28514
      H1    -8.76441   10.14589   16.97542
       H    -8.24170   15.12960   16.82153
       O    -7.79561   15.94241   17.13844
      H1    -7.31971   16.36385   16.40509
       H    -3.02306   17.08185   11.56451
       O    -2.24194   17.19729   12.10302
      H1    -1.99447   18.13327   12.09194
       H   -11.85521   13.50550    5.65313
       O   -10.97368   13.84896    5.93894
      H1   -10.52481   13.30479    6.57898
       H    -8.28489    8.82572   13.74901
       O    -8.87059    9.57367   13.55191
      H1    -8.23791   10.19988   13.11361
       H    -3.80796   12.02138   14.55834
       O    -3.31538   11.29185   14.93824
      H1    -2.42742   11.61115   15.08200
       H    -4.21934   15.78919   10.07473
       O    -4.63863   16.07766   10.87028
      H1    -5.20567   16.84001   10.53559
       H    -9.53738   18.88666   11.80221
       O   -10.16931   18.49362   12.41351
      H1   -10.76699   19.15641   12.69609
       H    -2.22056   11.78539   18.60715
       O    -3.15759   11.87957   18.77758
      H1    -3.71157   11.32007   18.16854
       H   -12.69929    8.41330    9.90143
       O   -11.91076    8.56729    9.40647
      H1   -11.18450    8.55630   10.09081
       H    -5.62830   13.60149   14.22234
       O    -5.57631   12.61818   14.35072
      H1    -5.85710   12.45131   15.25138
       H    -6.45816   16.79386   14.31108
       O    -6.73256   17.21577   15.13037
      H1    -6.04220   17.80852   15.50633
       H    -6.14796   11.97079    9.62249
       O    -5.53647   11.57464   10.22287
      H1    -5.31525   10.65104    9.96464
       H    -4.93769   18.71263   10.27739
       O    -5.84325   18.35233   10.12095
      H1    -6.01103   18.31789    9.15623
       H    -6.51235   14.29774   10.81583
       O    -7.08692   14.26191   10.02524
      H1    -7.89574   14.75149   10.28727
       H    -9.48301   12.13859    8.28751
       O    -9.28746   12.36070    7.36111
      H1    -9.46865   11.52798    6.91090
       H    -2.91202   16.71459   13.71321
       O    -3.30816   16.63808   14.60336
      H1    -3.96746   15.96561   14.52219
       H    -9.68148   12.12673   10.97589
       O   -10.00848   11.97051   10.11724
      H1   -10.94227   11.82686   10.36274
       H    -6.66677   10.72214    7.33685
       O    -6.53215   11.59153    6.86485
      H1    -7.39186   11.98675    6.63300
       H    -5.83785   12.94586   17.07120
       O    -6.43034   12.19409   16.95547
      H1    -7.31262   12.57486   17.03286
       H    -3.93272    9.65197   15.61401
       O    -4.00724    8.85240   16.10232
      H1    -3.08711    8.61460   16.34672
       H   -13.09943   11.95398    9.77990
       O   -12.55718   11.28610   10.19211
      H1   -12.70824   10.43396    9.73575
       H   -14.78951   13.38002    9.33291
       O   -13.99544   13.22080    8.83992
      H1   -14.22080   13.04976    7.98083
       H    -6.75081   15.40604   18.68324
       O    -6.07053   14.99346   19.25895
      H1    -6.39815   14.09996   19.62734

