168
frame 1 | Written by MDAnalysis XYZWriter (release 2.4.3)
       H    -7.82792   -0.69817   12.78125
       O    -6.87067   -0.58371   12.44688
      H1    -6.30936   -1.24216   12.88394
       H    -6.87338   -8.77101    9.06116
       O    -7.72501   -8.88233    9.50668
      H1    -8.10051   -9.74527    9.19904
       H    -2.21104   -1.56288   13.12714
       O    -2.58302   -1.20092   12.29803
      H1    -2.57610   -0.22666   12.38191
       H    -7.38435   -4.98920   17.81734
       O    -7.54417   -4.53602   18.70066
      H1    -6.91962   -4.95555   19.34969
       H    -9.72529   -4.13575   15.55608
       O    -9.58449   -3.14728   15.39095
      H1    -8.75161   -2.85502   15.91961
       H   -10.22867   -8.05852   15.32299
       O   -10.30388   -8.91575   15.74195
      H1   -10.68293   -9.44982   15.03241
       H    -1.19346   -1.24946   18.40569
       O    -0.45009   -1.61385   17.87649
      H1    -0.85037   -2.21883   17.22654
       H     1.05255   -7.69493   14.02357
       O     1.55069   -7.19431   14.70367
      H1     2.42553   -7.16734   14.31686
       H    -6.58543   -5.74373   11.41115
       O    -5.94427   -6.22796   11.94254
      H1    -6.13746   -7.17669   12.08057
       H    -9.43103   -7.00779   18.43348
       O    -9.85997   -6.08958   18.51476
      H1    -9.20130   -5.49564   18.93858
       H    -7.42094   -4.20616   13.33388
       O    -6.63339   -4.51209   13.74275
      H1    -6.33078   -5.29356   13.21546
       H    -2.62219  -11.60296   18.70503
       O    -3.57374  -11.43107   18.54030
      H1    -3.60506  -11.27549   17.55550
       H    -1.33946   -9.05100    9.99304
       O    -0.78289   -8.36837   10.32084
      H1     0.02333   -8.82656   10.11820
       H     0.48234   -2.51141    8.69546
       O    -0.27971   -2.88442    9.25123
      H1    -1.07070   -2.61643    8.80952
       H    -8.91956   -4.57590   12.44999
       O    -8.65914   -3.68208   12.12465
      H1    -8.25372   -3.81599   11.27979
       H    -3.56961   -5.93131    8.05496
       O    -3.46447   -6.86350    8.45773
      H1    -2.84903   -7.38391    7.91171
       H    -3.33983   -9.88040   11.38436
       O    -2.86448  -10.45883   10.79174
      H1    -3.60172  -10.74786   10.19551
       H    -8.10025   -8.50312   15.45012
       O    -7.16151   -8.23915   15.35127
      H1    -6.61502   -9.02649   15.37492
       H    -2.61343  -11.71212   11.86983
       O    -2.54050  -12.34195   12.64255
      H1    -3.27913  -12.94818   12.69254
       H    -0.46196   -3.19872   13.96572
       O    -1.16625   -2.60227   14.26304
      H1    -1.71961   -3.09175   14.80793
       H    -4.34764  -13.06391   15.52805
       O    -4.08525  -12.11014   15.42614
      H1    -3.60409  -12.12115   14.58351
       H    -3.46669   -8.73238   16.27281
       O    -3.90776   -8.81316   17.11673
      H1    -3.14072   -8.93625   17.76862
       H    -3.59510   -8.37259   13.37381
       O    -4.18951   -8.51576   12.58815
      H1    -3.85104   -7.73303   12.05441
       H    -0.78946  -10.26381   14.67634
       O    -0.87151  -11.21616   14.58780
      H1    -1.57679  -11.44449   14.01773
       H    -8.92118   -9.28623   17.79404
       O    -8.41846   -8.48538   18.05729
      H1    -7.56505   -8.74057   18.46376
       H    -5.32555   -9.29484   18.06791
       O    -6.14471   -9.46954   18.60323
      H1    -6.67454  -10.27603   18.37542
       H    -2.81568   -6.34136   10.69335
       O    -2.63270   -6.14127   11.65186
      H1    -2.39552   -5.23719   11.72408
       H    -0.36095   -8.21625   12.01255
       O    -0.18820   -8.44192   12.92565
      H1     0.03129   -9.40817   12.89276
       H    -7.43270  -11.25788   13.85877
       O    -7.84997  -11.23460   12.98051
      H1    -7.47157  -10.36023   12.65398
       H    -0.31539   -0.94737   11.95542
       O     0.37657   -1.18296   11.33815
      H1     0.11794   -1.56529   10.53014
       H    -8.00002   -1.69337   17.44368
       O    -8.05472   -1.30200   16.56352
      H1    -7.13824   -1.19919   16.28101
       H    -4.13890   -1.82699   12.96561
       O    -4.79141   -2.21677   13.62382
      H1    -5.11968   -3.09048   13.35314
       H    -8.11568   -1.90819    9.61637
       O    -7.87695   -2.86308    9.53016
      H1    -7.05740   -3.01479    9.09972
       H    -7.46460   -8.74019   11.14443
       O    -7.22935   -8.84628   12.07361
      H1    -7.79808   -8.33128   12.61853
       H    -5.61012  -11.22996   15.54610
       O    -6.46139  -10.79393   15.41579
      H1    -6.96318  -11.03458   16.22626
       H    -4.62617   -8.06724    8.38292
       O    -5.35089   -8.69563    8.26131
      H1    -5.03109   -9.43508    8.82103
       H    -2.68664   -2.40494   10.59296
       O    -3.30626   -2.86497    9.99672
      H1    -4.17509   -2.65176   10.36410
       H    -1.54559   -4.93923   18.86340
       O    -2.41756   -4.92170   19.25508
      H1    -2.40255   -5.54696   20.01318
       H    -3.07039   -7.47940   14.78005
       O    -2.49987   -8.28523   14.88190
      H1    -1.72756   -7.95642   14.40026
       H     0.34901   -4.58782   12.45436
       O     0.67530   -4.53075   13.34950
      H1     0.90914   -5.43466   13.59873
       H    -3.63501   -4.54428    6.43037
       O    -3.02679   -4.42575    7.19083
      H1    -3.44728   -3.60912    7.63118
       H    -1.17181   -7.52583   17.84619
       O    -1.31638   -8.43567   18.13093
      H1    -0.44768   -8.73560   17.79769
       H    -3.16214   -4.51859   15.94025
       O    -2.56655   -3.84592   16.20222
      H1    -3.02043   -3.24809   16.83888
       H    -1.28692   -5.32731   16.61897
       O    -0.61839   -5.97733   16.99420
      H1     0.17236   -5.92287   16.44683
       H    -9.61445   -5.98888   13.87944
       O    -9.18627   -6.13932   13.03537
      H1    -9.89654   -6.56297   12.52515
       H     0.82092   -4.96859   18.07636
       O     1.24764   -4.25117   18.54530
      H1     1.18358   -3.53971   17.88809
       H    -0.12273   -5.71655   10.21391
       O     0.60829   -5.17778   10.42015
      H1     0.38664   -4.25111   10.06893
       H    -7.12901   -5.09029   15.54043
       O    -7.26044   -5.63907   16.27646
      H1    -7.24291   -6.52523   15.93087
       H   -10.18207   -5.88149   16.43743
       O   -10.25158   -5.93941   15.47579
      H1   -11.20857   -6.07809   15.43423
       H    -5.00208   -1.24971   15.05873
       O    -5.41652   -0.70093   15.76371
      H1    -5.15622    0.22811   15.71242
       H    -5.69225   -2.80703    7.82710
       O    -5.72996   -3.70751    8.25762
      H1    -5.92486   -4.31795    7.55041
       H    -4.33884   -7.05385   17.77542
       O    -4.36273   -6.09552   17.82757
      H1    -3.51219   -5.84829   18.31082
       H    -3.39077   -1.20788   18.32454
       O    -3.78496   -1.90561   17.76106
      H1    -4.24456   -1.36076   17.06743
       H    -4.44180   -5.98464   14.33071
       O    -3.81505   -5.87872   15.00677
      H1    -4.30867   -5.96198   15.80492
       H     0.87935   -2.81057   15.36024
       O     1.68642   -3.04364   15.86660
      H1     2.24654   -2.27611   15.90039
       H     1.48306   -8.53251   16.09609
       O     1.04572   -8.90838   16.81074
      H1     1.31580   -8.49047   17.60761

