171
frame 7 | Written by MDAnalysis XYZWriter (release 2.4.3)
       H    16.85038   -1.99344   13.55967
       O    16.63688   -2.37910   14.40886
      H1    17.12185   -1.81317   15.08799
       H    15.26301  -10.62013   13.94433
       O    15.30191  -11.27615   14.57956
      H1    14.58538  -10.98877   15.20852
       H    11.99162   -6.28278    9.80214
       O    11.02256   -6.21867    9.93675
      H1    10.84088   -5.41250   10.42716
       H     9.53350   -2.05689   15.89709
       O     9.01445   -2.69702   16.40624
      H1     9.56778   -3.44778   16.29363
       H    16.20563   -2.55451   18.54096
       O    16.54368   -1.73684   18.15133
      H1    15.75866   -1.12842   18.22397
       H    18.11747   -3.94897   10.73635
       O    18.38161   -3.07872   10.32335
      H1    19.16754   -2.89176   10.83295
       H     8.03918   -3.16254   11.96374
       O     7.67236   -2.79983   11.13470
      H1     6.71646   -2.76021   11.16915
       H    18.44193    0.37486   16.02361
       O    18.10873   -0.52284   15.93654
      H1    17.77349   -0.76058   16.76664
       H    14.28055   -5.88472   10.39737
       O    13.79289   -6.01844    9.56981
      H1    13.84178   -5.19669    9.02047
       H    11.01536    2.11920   14.00421
       O    11.92173    1.83103   14.38085
      H1    12.52927    1.74953   13.63083
       H    14.48177    1.70210   12.27155
       O    13.64179    2.19164   12.24463
      H1    13.23341    1.98463   11.39250
       H    12.53700  -10.02784   15.90777
       O    13.34777  -10.25771   16.41598
      H1    13.65804   -9.42962   16.74862
       H    19.02353   -4.61007    6.69827
       O    18.44393   -3.87317    6.88605
      H1    17.80958   -4.22113    7.57343
       H    15.55799   -1.17155    8.37912
       O    16.17082   -1.04446    9.06869
      H1    17.05951   -1.13769    8.68915
       H    10.40932   -7.09725   14.81458
       O    10.64289   -7.96050   14.45891
      H1     9.89895   -8.19470   13.83967
       H    17.33596    3.57823   13.39822
       O    17.26195    3.79926   14.31837
      H1    16.39464    3.43190   14.59954
       H    13.45452   -1.94096   13.34708
       O    13.36508   -0.95790   13.43614
      H1    12.69619   -0.73653   12.78776
       H    11.09545   -8.05343   17.45181
       O    11.28540   -7.27184   17.97261
      H1    11.04885   -7.40572   18.90119
       H    16.10012    0.39714   15.07994
       O    15.18881    0.68553   15.32851
      H1    14.59640    0.25334   14.68005
       H    14.43311   -7.68525    9.00817
       O    14.49859   -8.56057    8.53284
      H1    14.02941   -9.10190    9.16149
       H    13.70876   -7.20176   15.31217
       O    13.30065   -7.70938   14.55251
      H1    12.31705   -7.72132   14.55053
       H    12.11108   -4.25294   19.21318
       O    12.86815   -4.55389   18.79634
      H1    13.56229   -3.90044   18.90839
       H    13.42972   -0.56526    7.96905
       O    13.66988   -1.16364    7.23409
      H1    14.39878   -0.79523    6.71997
       H    16.45672    1.21128    9.31269
       O    16.00595    2.03850    9.17535
      H1    15.10997    1.76001    8.94350
       H    15.78570   -4.00995    8.35275
       O    16.60264   -4.46754    8.57625
      H1    17.09259   -3.87811    9.16645
       H    17.24295   -0.19107   12.21078
       O    17.22835   -1.11509   12.20835
      H1    17.53924   -1.51231   11.35974
       H    16.03856   -4.43436   18.33685
       O    15.49507   -3.93853   18.95519
      H1    15.84038   -4.08605   19.82584
       H    10.56944   -9.33692   10.92248
       O     9.98202   -8.55890   10.72129
      H1    10.52631   -7.82650   10.48086
       H    10.62602   -6.09702   16.66929
       O    10.14107   -5.38909   16.20648
      H1    10.98773   -5.03306   15.85871
       H    13.27410   -3.12562    7.91731
       O    13.61326   -3.99238    7.66581
      H1    13.58253   -4.02428    6.68200
       H     9.73533   -0.26277   14.03683
       O     9.36263   -0.43742   13.11820
      H1     8.42309   -0.35947   13.34450
       H    14.66919   -7.69687   17.53639
       O    13.98592   -7.08177   17.14279
      H1    13.20406   -7.01500   17.69252
       H    18.99927   -4.37547   15.10151
       O    18.14301   -4.73098   14.88325
      H1    17.53956   -3.94799   14.79264
       H    14.50272   -6.92745   12.67436
       O    14.93916   -6.11445   12.40278
      H1    14.70236   -5.46001   13.07282
       H    16.10034    2.34920   17.48194
       O    16.65836    1.66745   17.90221
      H1    17.49492    2.16391   18.02260
       H    11.78698   -0.92654   16.11009
       O    12.53636   -1.51808   16.07802
      H1    12.89914   -1.28634   15.22900
       H     7.65161   -5.02271   13.63793
       O     7.78359   -4.06584   13.69357
      H1     6.95666   -3.69632   14.00607
       H    16.45567    1.72986   11.16459
       O    17.05687    1.72817   11.94095
      H1    17.89548    2.00422   11.57263
       H    13.86382   -8.93355   13.15305
       O    14.11632   -9.47947   12.41352
      H1    15.01263   -9.20136   12.15673
       H    11.60098   -1.10985   11.15239
       O    11.42627   -0.20849   11.41702
      H1    10.69894   -0.06453   12.03704
       H    13.02451   -3.39331   16.37367
       O    13.01732   -4.26459   15.94984
      H1    13.30300   -4.80384   16.66633
       H    17.95497   -8.61379   13.89932
       O    17.45602   -9.28450   13.34022
      H1    17.34356   -8.84065   12.48599
       H    10.74576   -4.60155    7.37764
       O    10.10157   -5.33821    7.23220
      H1    10.06711   -5.81633    8.06618
       H    16.21646   -5.99659   16.72093
       O    16.98170   -5.52997   17.14712
      H1    17.37429   -5.06547   16.41167
       H    17.57923   -6.38487   10.83463
       O    17.64701   -5.68215   11.48239
      H1    16.76311   -5.77961   11.92149
       H    14.94709    2.23415   15.84248
       O    15.10326    3.18052   16.13029
      H1    14.24695    3.60407   16.23725
       H    18.41239   -6.49318   14.29720
       O    18.92508   -7.32022   14.33013
      H1    19.83759   -7.07205   14.24233
       H    13.50331   -1.09193   18.71336
       O    14.03184   -0.49804   18.16373
      H1    13.71052   -0.71087   17.28602
       H    13.97906   -3.73391   14.37824
       O    14.31691   -3.40769   13.51142
      H1    15.15248   -2.97807   13.76890
       H    12.48635   -2.95406   10.46377
       O    13.01226   -2.19344   10.21032
      H1    13.88184   -2.32008   10.65089
       H    12.56546    1.61355    9.07607
       O    13.09340    0.83665    9.37580
      H1    12.39777    0.31882    9.88980
       H     9.78575    0.53239   16.00944
       O    10.49613    0.01005   15.62688
      H1    11.24060    0.58677   15.38282
       H    16.65562   -9.87040   10.80781
       O    16.52621   -8.84867   10.76622
      H1    15.79352   -8.68822   10.09295
       H    18.85757   -8.06031    8.92459
       O    18.98701   -8.03132    9.89407
      H1    18.25244   -8.55240   10.24810
       H    19.47644   -7.66894   17.05721
       O    19.58539   -6.88313   17.53887
      H1    18.81816   -6.33630   17.29152
       H     9.63183   -3.46392   10.68801
       O    10.58218   -3.66545   10.73967
      H1    10.85782   -3.55562   11.64911
       H     9.67986   -3.45112   13.67284
       O    10.52690   -3.01081   13.50463
      H1    10.27052   -2.09351   13.23318

