171
frame 3 | Written by MDAnalysis XYZWriter (release 2.4.3)
       H     4.26126   13.36307   17.23200
       O     3.56179   13.09473   17.83976
      H1     3.75161   13.59008   18.66801
       H     4.25894   11.27863   17.86294
       O     4.61840   10.36072   17.85917
      H1     5.42461   10.45239   18.42080
       H    -6.05903   12.30927   16.34466
       O    -5.19603   12.61944   16.63075
      H1    -5.31957   13.54454   16.86547
       H    -7.03030   10.73741   14.41143
       O    -7.39964   11.23947   15.15823
      H1    -7.47098   10.69225   15.95864
       H     6.01782   13.12102   15.18702
       O     6.96953   13.29900   15.33168
      H1     7.27221   12.55534   15.88726
       H     5.60601    4.73550   18.96231
       O     5.17313    5.60951   19.07462
      H1     4.48649    5.76084   18.43209
       H     3.77024   13.10128   14.56980
       O     4.56248   12.75506   14.20947
      H1     4.58376   12.97605   13.28752
       H    -0.88814    3.65595   12.85926
       O    -1.53895    3.56897   13.58065
      H1    -1.02445    2.96153   14.13899
       H    -4.58515    4.05707   16.73915
       O    -3.63934    3.82736   16.70390
      H1    -3.22637    4.36577   16.00947
       H     2.48737    6.08574   16.76122
       O     3.20322    6.48609   17.24267
      H1     3.10830    7.42772   17.09154
       H     1.80180    8.70992   19.84772
       O     1.15925    9.40029   19.65515
      H1     1.03372    9.23448   18.70702
       H    -3.39194   12.38635   19.56457
       O    -2.54789   12.01907   19.75852
      H1    -2.71319   11.09005   19.72087
       H     1.12544    7.74889    9.91531
       O     0.59027    7.64067   10.73433
      H1     0.69064    8.39321   11.23167
       H    -6.10695    7.86395   11.90949
       O    -5.70554    7.17025   11.33244
      H1    -4.79803    7.09879   11.58362
       H     1.96879   14.20712   18.00698
       O     1.08727   14.52550   18.04469
      H1     1.14243   15.47862   18.15895
       H    -0.35536    1.16788   15.44651
       O    -0.54675    2.09993   15.73901
      H1    -0.67197    1.98422   16.64753
       H    -7.13945    8.51091   18.75549
       O    -7.50475    9.38294   18.89452
      H1    -7.97883    9.33373   19.70177
       H    -4.05696   11.60205   13.63556
       O    -4.71906   11.39935   12.97897
      H1    -4.44725   11.78252   12.15248
       H    -3.65363    5.61421   19.27956
       O    -3.83709    4.69115   19.40766
      H1    -3.83292    4.39525   18.46829
       H     3.85489    5.71177   15.71600
       O     4.37291    5.38917   14.96655
      H1     4.00797    5.91942   14.26580
       H    -3.88795    9.53418   12.97951
       O    -3.62083    8.64803   12.78972
      H1    -3.20342    8.34993   13.61336
       H    -1.08513    7.45828    9.74766
       O    -1.74240    7.34930    9.03493
      H1    -1.23429    7.13709    8.22769
       H     3.37283    9.45874   15.20055
       O     2.97700    9.13158   16.05657
      H1     3.54806    9.62784   16.66714
       H    -7.47848    7.25031   15.07812
       O    -6.72955    7.52596   14.48666
      H1    -6.01258    7.69270   15.10817
       H     0.00312   12.74226   17.91224
       O    -0.37453   11.87495   17.77509
      H1    -1.15616   11.84451   18.29121
       H    -0.48857   16.98363   17.08710
       O    -0.14997   16.93826   17.99021
      H1     0.16939   17.83310   18.08160
       H    -0.54814   12.87887   16.08335
       O    -0.34156   13.44787   15.30077
      H1    -0.69164   14.34611   15.40800
       H     7.27398    4.98128   15.47559
       O     6.81614    5.70130   15.94711
      H1     5.85376    5.59642   15.71378
       H    -1.88529   16.13849   18.59705
       O    -2.85082   16.00406   18.58742
      H1    -3.08610   15.19361   19.04679
       H    -0.68703    6.25115   18.23841
       O    -0.71415    6.51076   17.27277
      H1    -0.38035    7.41825   17.31485
       H    -2.07722    4.97202   14.31652
       O    -2.39824    5.73572   14.87339
      H1    -1.87872    5.97590   15.62084
       H     0.65545   10.58941   12.83389
       O     1.24923   11.36940   12.69592
      H1     0.73617   12.16481   12.82058
       H     0.98201    6.44605   12.95959
       O     1.05063    7.02154   13.78113
      H1     1.10232    6.43822   14.53753
       H    -1.13860   13.84666   12.78860
       O    -0.32096   13.84137   12.28964
      H1    -0.72283   13.70357   11.43353
       H    -1.74268    2.10338   18.75049
       O    -0.92041    1.65763   18.44250
      H1    -0.20873    2.14413   18.87105
       H     0.49252    5.49029   16.29952
       O     1.29737    5.30320   15.74753
      H1     1.61076    4.39070   15.84273
       H    -6.66862    8.79759   13.46348
       O    -6.86106    9.64606   12.92023
      H1    -5.98518   10.08798   12.93352
       H    -2.78484   10.44986   15.13844
       O    -2.67526    9.51655   15.31971
      H1    -1.89539    9.43178   15.87657
       H     1.07694    2.64413   16.05564
       O     2.02385    2.77950   16.13895
      H1     2.27083    2.45755   17.09393
       H     2.57841    5.18823   12.10555
       O     3.22461    5.90238   12.31468
      H1     2.69005    6.42512   12.88000
       H    -4.02672   16.59363   15.32747
       O    -3.83729   15.74273   15.78701
      H1    -3.60337   15.96036   16.70019
       H     4.12823    6.82099   11.00579
       O     4.54532    7.40749   10.38566
      H1     5.06351    7.88585   11.05816
       H    -2.02793   12.67474   15.00229
       O    -2.87992   12.17302   15.07772
      H1    -3.46187   12.55636   15.70074
       H     0.74925    9.34701   16.41246
       O    -0.03084    9.41635   16.99658
      H1    -0.07934   10.39374   17.25517
       H     6.60827    6.47438   18.66339
       O     7.34847    7.01539   18.31334
      H1     7.56190    6.67469   17.42801
       H     7.58626    8.81955   18.53560
       O     7.40301    9.71413   18.73923
      H1     7.77187   10.23330   17.99219
       H    -0.12714    8.40923   13.68158
       O    -0.56977    9.17323   13.22764
      H1    -1.54038    8.96483   13.26645
       H     5.57408    9.43886   12.66187
       O     6.09028    9.04107   11.94434
      H1     6.44021    9.78247   11.39905
       H    -2.07941   15.78137   15.51466
       O    -1.16653   15.99529   15.35138
      H1    -1.15741   16.49834   14.48919
       H     3.46494   10.11117   13.15263
       O     4.20017   10.02601   13.78543
      H1     4.51356   10.88496   14.08961
       H     2.11385   14.75425   14.62626
       O     2.47036   14.15385   15.26923
      H1     1.65408   13.71215   15.49390
       H     0.62625    5.36767   10.95660
       O     0.72162    4.75301   11.66928
      H1     0.65155    3.85155   11.27306
       H    -5.55981   10.23201   18.83644
       O    -4.66127   10.31724   18.44788
      H1    -4.74873   11.23953   18.02471
       H     2.37086   13.29591   10.20476
       O     2.65751   12.52044   10.70800
      H1     2.04969   12.14978   11.40200
       H    -4.71298    8.95084   17.10500
       O    -4.69015    8.32304   16.40471
      H1    -4.03147    8.68568   15.77339
       H    -4.19514    7.54089   18.12278
       O    -3.87582    7.37379   19.00610
      H1    -4.65502    7.40392   19.61517
       H     6.92633    7.53624   15.59866
       O     6.58032    8.41198   15.43728
      H1     5.83076    8.55209   16.01943

