171
frame 6 | Written by MDAnalysis XYZWriter (release 2.4.3)
       H   -18.66407    1.43999   -4.13517
       O   -18.52817    2.35870   -4.26103
      H1   -17.71646    2.53109   -3.76501
       H   -16.28728   -4.83127   -1.59739
       O   -16.95673   -4.11556   -1.72589
      H1   -17.29746   -4.28679   -2.56764
       H   -15.83075  -12.65863   -0.08655
       O   -16.26523  -12.74381   -0.92901
      H1   -16.77063  -13.52977   -0.78224
       H   -14.72522    1.10152    4.57892
       O   -15.09331    0.29008    4.16762
      H1   -15.98530    0.45991    3.95122
       H   -20.22060  -13.47985    0.22211
       O   -19.43733  -13.05395   -0.10622
      H1   -19.03518  -12.67283    0.67866
       H   -16.76768   -6.89845   -1.19030
       O   -15.83097   -6.63551   -1.26069
      H1   -15.61022   -6.87303   -2.21467
       H   -17.08836   -4.22200   -7.03898
       O   -17.15285   -4.62919   -6.12554
      H1   -17.96587   -4.15518   -5.82246
       H   -14.94047   -9.28427    0.96489
       O   -15.69498   -8.77464    0.72433
      H1   -15.37031   -8.22264   -0.08130
       H   -18.00588   -4.72900   -0.32459
       O   -18.52677   -5.10611    0.36167
      H1   -19.15103   -4.37504    0.55588
       H   -17.94854    0.09865    2.84253
       O   -18.04790   -0.12011    3.76459
      H1   -18.92084    0.24068    3.97484
       H   -17.65586  -13.05315    2.79960
       O   -18.07995  -12.21960    2.39394
      H1   -17.50023  -11.43368    2.54676
       H   -14.81535   -4.96076   -4.39016
       O   -15.23217   -4.12049   -4.39237
      H1   -16.00933   -4.24591   -4.99769
       H   -13.36609   -2.94742   -1.52971
       O   -12.50346   -3.13348   -1.86329
      H1   -11.97368   -3.08991   -1.09167
       H    -9.90120   -6.04544   -5.16415
       O    -9.80316   -5.62387   -4.32223
      H1   -10.69709   -5.14375   -4.24168
       H   -16.17474   -2.27233   -3.51203
       O   -16.01667   -1.39741   -3.83916
      H1   -15.19613   -1.33130   -4.29818
       H   -13.56227   -1.09079    2.71222
       O   -13.62125   -1.41258    1.77294
      H1   -14.22501   -2.16329    1.81316
       H   -17.11816   -1.31382    0.86352
       O   -17.94652   -1.00487    1.20656
      H1   -18.13071   -1.50550    2.05391
       H   -13.41467   -2.65779    4.53859
       O   -13.20764   -1.78832    4.95412
      H1   -13.97675   -1.23778    4.98525
       H   -18.42289   -8.44582   -1.16608
       O   -18.81544   -7.52756   -1.05742
      H1   -19.01097   -7.41756   -0.10675
       H   -19.55426   -2.43864   -8.15737
       O   -18.76539   -1.86625   -8.32532
      H1   -18.37830   -2.34369   -9.05142
       H   -19.93087   -4.65581   -4.28337
       O   -19.17833   -4.09775   -4.39199
      H1   -19.43483   -3.19274   -4.69922
       H   -15.65946   -8.62864   -7.68167
       O   -16.38792   -9.02844   -7.13827
      H1   -17.05109   -8.35783   -7.02538
       H   -18.47490   -1.67332   -6.42281
       O   -18.56136   -1.69147   -5.49077
      H1   -17.67968   -1.63006   -5.09955
       H   -14.51999   -3.96671    2.73767
       O   -15.22416   -3.75026    2.05782
      H1   -15.24281   -4.41664    1.33474
       H   -12.48201   -1.15179   -4.36843
       O   -13.17964   -0.61773   -4.81027
      H1   -12.76916    0.21175   -5.15162
       H   -17.22262   -9.16645    3.53155
       O   -17.26449   -9.63378    2.69345
      H1   -16.56857   -9.26053    2.13092
       H   -15.27415   -9.57525   -3.98249
       O   -14.85984   -9.02009   -4.63648
      H1   -15.47175   -9.08807   -5.42722
       H   -12.37827   -4.68617    4.33957
       O   -13.26681   -4.37544    4.05242
      H1   -13.87537   -4.83191    4.67284
       H   -17.03293  -11.47183   -5.43091
       O   -16.90385  -11.23897   -4.51365
      H1   -17.70473  -10.70359   -4.38900
       H   -12.71472   -4.44138   -5.18709
       O   -12.46960   -4.61034   -4.27073
      H1   -12.79378   -3.89622   -3.68055
       H   -18.84773   -9.24491    1.89663
       O   -19.30764   -8.52584    1.47282
      H1   -19.81502   -8.88258    0.78664
       H   -11.11205   -6.27417    5.09613
       O   -11.76487   -6.97837    5.14572
      H1   -11.61857   -7.28133    4.24638
       H   -16.94271  -10.06228   -1.23421
       O   -17.57808   -9.74173   -1.87835
      H1   -18.30961  -10.37960   -1.91087
       H   -13.59848   -9.21259    2.82917
       O   -14.10130  -10.00262    2.74006
      H1   -13.39855  -10.64701    2.51736
       H   -19.09163   -2.02691    7.02559
       O   -18.93103   -1.11397    7.37554
      H1   -18.09032   -0.82230    7.02294
       H   -11.35873   -3.68740    1.13859
       O   -11.26074   -2.78624    0.79808
      H1   -12.04720   -2.28807    1.07495
       H   -11.71267   -5.90873    0.64758
       O   -11.12990   -5.43073    1.26075
      H1   -10.30316   -5.26558    0.78865
       H   -17.53912   -4.96509    4.41694
       O   -17.58944   -4.05154    4.21755
      H1   -16.69191   -3.92581    3.82063
       H   -16.99722   -1.32039    5.08127
       O   -16.80978   -1.98414    5.78062
      H1   -17.20165   -2.81814    5.44954
       H   -19.29534    3.73171    1.87014
       O   -19.00747    2.97042    2.34001
      H1   -18.16013    3.23411    2.73117
       H   -19.46735   -0.57193   -1.77423
       O   -19.59384   -1.13158   -1.00731
      H1   -18.91118   -0.88199   -0.32303
       H   -12.88615    1.09135   -0.17075
       O   -12.51247    1.65438    0.55672
      H1   -11.85667    1.12667    0.99552
       H   -10.94796   -8.78029    2.60379
       O   -11.67917   -8.19397    2.52349
      H1   -11.69840   -7.72497    1.66534
       H   -12.96452    0.09934   -2.05637
       O   -13.74863    0.09380   -1.45722
      H1   -14.38597    0.65993   -1.93942
       H   -14.41002   -7.49854   -4.00648
       O   -14.24019   -6.57156   -3.61390
      H1   -13.31237   -6.20970   -3.70453
       H   -18.58192   -7.08940   -5.83215
       O   -18.15441   -6.97553   -6.69877
      H1   -17.65421   -6.15890   -6.56487
       H   -17.11550   -5.81680    1.62996
       O   -16.42752   -6.39704    1.88591
      H1   -16.55515   -7.27351    1.53846
       H   -10.92876   -1.00459   -3.38526
       O   -10.74559   -1.86295   -3.90194
      H1   -11.06739   -2.54073   -3.28534
       H   -14.32815    1.78878    0.89606
       O   -15.23311    2.14625    0.63058
      H1   -15.78537    1.38274    0.87514
       H   -18.92307    3.78570   -1.64380
       O   -19.20506    2.95742   -1.31846
      H1   -19.13265    2.39560   -2.10309
       H   -15.96881   -6.33749    5.20122
       O   -16.74866   -6.59419    4.66484
      H1   -16.43777   -6.75706    3.75294
       H   -15.68306    1.37856   -3.96457
       O   -15.77642    1.37871   -2.97997
      H1   -16.08130    0.46758   -2.81019
       H   -14.10404   -6.05232    6.72869
       O   -14.77863   -5.57648    6.11102
      H1   -14.82272   -4.76925    6.61828
       H   -18.55853   -6.75632    5.74419
       O   -19.46935   -6.55559    5.58651
      H1   -19.57290   -6.38039    4.64237
       H   -15.57227   -2.73892    6.82378
       O   -15.23306   -3.16765    7.63988
      H1   -14.61226   -2.61491    8.09148
       H   -12.81384   -6.74331   -1.35529
       O   -12.27266   -7.13413   -0.67414
      H1   -11.65684   -7.72709   -1.12230
       H   -15.85741   -2.65488   -1.21955
       O   -15.07367   -2.30836   -0.83285
      H1   -15.00647   -1.40266   -1.12143

