171
frame 10 | Written by MDAnalysis XYZWriter (release 2.4.3)
       H    -5.99741  -16.45051   10.60201
       O    -5.20871  -16.29426   10.03917
      H1    -4.93510  -17.21635    9.91009
       H    -2.11055  -16.95502   15.30092
       O    -1.53402  -17.61655   14.91749
      H1    -1.68963  -18.43518   15.38138
       H   -10.06300  -18.85193   16.85601
       O   -10.48921  -19.68754   16.70237
      H1   -10.00897  -20.20016   16.07558
       H    -6.21831  -16.77008   12.99848
       O    -6.25355  -15.84425   13.25290
      H1    -5.52761  -15.39161   12.72739
       H    -6.96224  -16.99381   19.05013
       O    -7.79869  -16.54782   19.15590
      H1    -7.92216  -16.03184   18.30357
       H   -11.12034  -15.18574   19.89171
       O   -10.80406  -14.51294   19.23564
      H1   -10.66166  -13.63278   19.70900
       H   -10.20287   -8.23842   17.48413
       O   -10.73194   -8.85570   16.93713
      H1   -10.37432   -8.76414   15.99423
       H    -9.06383  -14.35987   18.06343
       O    -8.52675  -14.65050   17.37933
      H1    -7.97955  -13.85257   17.23972
       H    -8.45741  -10.60800   11.48365
       O    -8.02485  -10.43114   12.28694
      H1    -7.08682  -10.53794   12.06562
       H    -5.89379  -19.48070   13.89248
       O    -5.99444  -18.84249   13.20738
      H1    -6.78849  -19.17632   12.73786
       H    -7.77454  -11.59687   13.50885
       O    -7.68283  -12.19449   14.35030
      H1    -8.57444  -12.22271   14.69617
       H    -4.60296  -13.76334   17.46159
       O    -4.57381  -14.69806   17.79302
      H1    -4.95443  -14.69844   18.64801
       H    -3.72762  -11.79227   17.79410
       O    -4.10585  -12.09057   16.94031
      H1    -3.36046  -12.49882   16.46428
       H    -1.39107  -16.29373   18.15278
       O    -2.34350  -16.36242   17.95625
      H1    -2.71153  -15.41835   17.74011
       H    -0.83252  -14.39213   18.08462
       O    -1.13490  -13.48931   17.88054
      H1    -0.40364  -13.06049   17.55015
       H   -11.95835  -14.51941   16.23379
       O   -12.34147  -14.20889   17.08340
      H1   -11.67779  -14.30603   17.77537
       H    -1.33533   -8.81739   12.98919
       O    -0.91921   -7.97107   12.80310
      H1    -1.22151   -7.75382   11.92213
       H    -7.15834   -7.29124   15.06112
       O    -6.83237   -6.38203   15.05358
      H1    -7.62664   -5.90333   14.68883
       H    -1.43367  -10.85175   13.23024
       O    -1.74712  -10.20521   13.91792
      H1    -1.10567  -10.08240   14.60973
       H    -4.00740  -10.97160   15.39404
       O    -4.20785  -10.24398   14.79035
      H1    -3.35165  -10.17037   14.32521
       H    -3.75077  -16.17200   11.36274
       O    -3.49700  -15.66474   12.10340
      H1    -2.96554  -16.17318   12.67941
       H    -0.66243   -6.87619   17.56661
       O    -1.19394   -7.65524   17.63071
      H1    -1.90571   -7.58124   17.01297
       H     0.18319  -10.57800   16.19564
       O     0.14384   -9.66481   15.90819
      H1    -0.45108   -9.21639   16.51654
       H    -5.65441   -7.94955   17.80913
       O    -5.59085   -8.88426   17.97671
      H1    -5.87745   -9.33829   17.11191
       H    -8.55549  -15.74897   15.68038
       O    -8.94072  -16.10006   14.88960
      H1    -8.21534  -16.00233   14.26247
       H    -3.55691  -12.26681    9.35016
       O    -4.06498  -12.92577    9.81374
      H1    -3.43571  -13.61272    9.99710
       H    -8.37511  -15.94275   10.46797
       O    -8.16578  -16.80549   10.17546
      H1    -8.58294  -16.98380    9.35085
       H    -5.13889  -17.44899   17.60556
       O    -5.26427  -17.58372   18.59083
      H1    -4.45355  -17.32718   19.02985
       H    -5.67740  -18.89821   15.73360
       O    -5.37678  -19.76000   16.07086
      H1    -4.42093  -19.84414   15.84409
       H     0.15847  -15.96221   19.73301
       O     0.15093  -15.73041   18.76020
      H1     1.01285  -16.04187   18.40418
       H    -4.83004  -12.00229   11.46974
       O    -5.15476  -11.26731   12.04846
      H1    -4.83043  -11.58864   12.85657
       H     3.20271  -10.88318   16.65623
       O     3.66206  -11.75969   16.63872
      H1     4.46224  -11.58615   17.11537
       H   -10.76510  -11.37052   14.81190
       O   -10.18189  -11.95416   15.32386
      H1   -10.20419  -11.63907   16.26903
       H    -2.50866   -8.66572   18.75952
       O    -3.11357   -9.40160   19.02302
      H1    -3.94403   -9.06443   18.70257
       H   -11.48851  -14.30004   13.83236
       O   -11.46161  -15.03783   14.42844
      H1   -10.50228  -15.09804   14.62759
       H    -0.25665  -12.80535   12.44858
       O    -1.20386  -12.72965   12.57329
      H1    -1.46037  -13.37224   11.91427
       H    -6.18278   -9.41423   14.71356
       O    -6.68530   -9.00883   15.40605
      H1    -7.60614   -9.04166   15.05714
       H    -0.41137  -19.83085   12.67598
       O    -0.85149  -19.03826   12.33153
      H1    -1.10466  -18.45612   13.03685
       H   -10.18271  -16.25918   17.63650
       O   -10.46603  -16.99993   17.12021
      H1   -10.02148  -16.86739   16.29190
       H    -8.96779  -13.83199   11.61463
       O    -8.36623  -14.62234   11.54371
      H1    -7.99523  -14.83938   12.39830
       H     2.44405  -14.32424   14.43659
       O     1.65928  -14.39638   15.03146
      H1     1.61819  -15.34680   15.13617
       H    -4.80833   -9.60936   11.80363
       O    -4.54809   -8.68712   11.51168
      H1    -4.74561   -8.12616   12.31667
       H     2.51985  -17.17991   18.52106
       O     2.50276  -16.59269   17.71055
      H1     2.42760  -17.11680   16.89693
       H    -9.20760   -7.35957   13.85685
       O    -9.16051   -8.30849   14.09757
      H1    -8.76781   -8.83901   13.36992
       H    -8.52237   -5.35596   17.26997
       O    -7.94017   -6.05949   17.54886
      H1    -7.33398   -5.96268   16.83502
       H    -6.18717  -12.16054   17.32873
       O    -7.05026  -12.21869   17.01294
      H1    -7.06975  -12.08920   16.09213
       H     3.60871  -14.70362   16.93602
       O     4.38579  -14.84151   16.34365
      H1     4.24003  -14.26996   15.56785
       H    -3.91094   -7.07877   16.56548
       O    -3.43162   -7.65580   15.89995
      H1    -3.90896   -8.51630   15.72014
       H    -3.84211   -5.82324   18.20820
       O    -4.65217   -6.16014   17.80191
      H1    -5.14488   -5.39582   17.46399
       H    -5.40204  -15.73142   16.64263
       O    -5.65025  -16.50914   16.13589
      H1    -5.70139  -16.21328   15.23672
       H     0.81165  -19.89051   19.94500
       O     0.39299  -19.07367   19.55273
      H1     0.80675  -19.16494   18.70317
       H     1.48690  -16.91345   13.86469
       O     1.20349  -17.09861   14.77248
      H1     0.21218  -17.18615   14.75993
       H    -5.28512   -6.54609   13.75416
       O    -4.35212   -6.76943   13.64889
      H1    -3.97823   -7.12629   14.53650
       H    -9.94606  -10.50161   17.43550
       O    -9.49767  -11.22615   17.87506
      H1    -8.57714  -11.32868   17.59865
       H     2.04190   -9.22727   16.29903
       O     2.98814   -9.17049   16.52872
      H1     3.54156   -9.13828   15.77147
       H    -1.62658  -13.36402   14.36025
       O    -2.15695  -13.64432   15.13043
      H1    -1.56434  -13.68523   15.88604
       H     1.29784  -12.92435   15.98325
       O     1.08830  -12.23189   16.70233
      H1     2.03323  -12.02788   16.89967

