171
frame 7 | Written by MDAnalysis XYZWriter (release 2.4.3)
       H   -13.92664   13.67641    3.06268
       O   -14.46457   14.24994    3.57160
      H1   -14.14838   15.14715    3.39200
       H   -11.27210   10.03551    3.59003
       O   -12.20783   10.38415    3.64574
      H1   -12.31151   10.99331    2.83990
       H   -16.33064   13.84885    2.58087
       O   -17.00826   13.76563    1.89477
      H1   -16.53240   14.11516    1.18278
       H   -16.05118    6.36160    9.24010
       O   -15.87542    6.26370   10.19475
      H1   -16.73798    6.37602   10.73741
       H   -16.18618   12.45361   11.24917
       O   -16.50719   11.51447   11.22302
      H1   -17.24279   11.58375   11.86539
       H    -9.71993   10.86842   13.83395
       O   -10.09103   11.37879   14.53100
      H1    -9.36296   11.90431   14.89653
       H   -11.90982   13.81587   15.40987
       O   -12.29152   13.10345   14.89063
      H1   -11.52529   12.46948   14.71070
       H   -18.78250   11.35883    5.92395
       O   -19.08098   10.81896    6.69331
      H1   -19.23083   11.54843    7.34776
       H   -13.45439   10.02129    6.84627
       O   -12.86167    9.97203    7.60134
      H1   -12.95129    9.06156    7.87878
       H   -12.32998    7.36503   10.66658
       O   -11.70483    6.87277   10.05008
      H1   -10.87407    7.04388   10.43735
       H   -14.36035   11.70495   17.06049
       O   -13.93537   11.28380   16.29712
      H1   -13.28159   11.82969   15.85460
       H    -8.47920   16.37474    8.71289
       O    -8.90555   16.19124    7.82427
      H1    -8.74952   16.87511    7.14513
       H   -15.51834    7.98172   10.33192
       O   -15.21524    8.92151   10.17748
      H1   -15.80171    9.54669   10.59919
       H   -15.99030   10.14835    7.33990
       O   -16.83133    9.73226    7.43989
      H1   -17.65448   10.20545    7.15497
       H   -10.29248   16.05672   12.17613
       O    -9.95232   15.23253   11.85092
      H1   -10.45112   14.87365   11.09466
       H   -12.99775   16.22157    9.86176
       O   -13.64845   16.93849    9.86524
      H1   -13.78890   17.11268   10.83844
       H   -17.46595   16.93360    9.02316
       O   -17.98948   17.65147    9.33482
      H1   -18.76415   17.57691    8.81859
       H    -8.27935    9.41860    9.71517
       O    -8.71359   10.11460   10.19515
      H1    -8.54831    9.90255   11.10783
       H   -11.16861    9.42225    7.07191
       O   -10.31459    8.95441    6.89761
      H1   -10.33572    8.88704    5.92244
       H   -16.27510   16.69449    5.17010
       O   -17.17340   16.98926    5.00651
      H1   -17.28957   16.94713    4.03004
       H   -13.50377   14.73274   13.35630
       O   -14.13896   15.43934   13.61639
      H1   -14.42083   15.25518   14.50983
       H   -13.61595    9.05147   14.40519
       O   -13.19546    8.20067   14.63325
      H1   -13.29715    8.05669   15.57891
       H   -13.45270   17.27021    7.17446
       O   -14.33278   17.17427    6.72339
      H1   -14.92350   16.84599    7.45146
       H   -10.11431   15.51832    3.69382
       O   -10.70049   16.20760    3.99020
      H1   -11.38924   15.78079    4.52545
       H   -14.25971   11.58787   13.92287
       O   -14.53317   10.79210   13.43775
      H1   -15.01537   11.16587   12.73609
       H   -10.60116    7.25559    6.32193
       O   -10.64046    6.44485    5.82461
      H1   -11.56789    6.12932    5.70021
       H   -17.22365   13.51909   13.32456
       O   -18.09418   13.19640   13.52884
      H1   -17.96815   12.39761   14.09998
       H   -13.95675   16.90930   12.94438
       O   -14.01111   17.77536   12.55448
      H1   -13.31611   18.23833   13.02203
       H   -12.29356   13.48323   12.44534
       O   -12.80491   13.81389   11.68852
      H1   -13.10792   13.03200   11.20327
       H   -18.31636    7.40701    4.01336
       O   -18.80285    7.84599    4.71615
      H1   -18.10575    8.16641    5.26268
       H   -11.62827   14.17625    9.41457
       O   -11.57302   15.12537    9.24602
      H1   -11.18892   15.29143    8.42561
       H   -17.99418   12.55706    3.82064
       O   -18.84628   12.27171    4.15533
      H1   -19.18736   11.62429    3.53781
       H    -9.85163   13.18812    3.72178
       O    -9.38315   13.85341    3.22324
      H1    -9.96082   14.00895    2.50924
       H   -11.40614   11.76768    4.42927
       O   -11.04591   12.50844    4.98538
      H1   -10.42067   12.11054    5.65542
       H   -19.11020   13.17985    9.39733
       O   -18.97474   12.94555    8.44629
      H1   -18.97514   13.75880    7.96557
       H   -12.47085   18.27600    8.95061
       O   -11.74274   18.37102    8.32320
      H1   -11.14464   17.69689    8.57040
       H   -16.86386    7.84125    7.71656
       O   -16.89124    6.85560    7.51532
      H1   -17.91512    6.72651    7.49668
       H   -15.45249   14.68709   12.50745
       O   -16.19354   14.23818   12.06195
      H1   -16.64737   15.01237   11.57789
       H   -15.82046   20.06828    9.81442
       O   -15.02010   19.77850   10.23457
      H1   -14.93093   18.83646   10.16242
       H   -13.89495    8.72998   11.48641
       O   -13.01163    8.47429   11.70085
      H1   -13.04492    8.08813   12.59411
       H   -14.33699   13.32424    5.16037
       O   -14.50399   12.97143    6.01656
      H1   -14.69438   12.04092    5.97127
       H   -14.39125    6.95325    5.04626
       O   -15.20517    7.33548    4.62802
      H1   -14.91581    7.38929    3.71957
       H   -14.78007    8.94418    5.03024
       O   -14.37134    9.78472    5.34430
      H1   -13.76589    9.90623    4.61703
       H   -16.09622   14.87130    8.77713
       O   -15.98409   15.82401    8.85738
      H1   -15.18350   16.03595    9.40304
       H   -12.52549   14.22140    5.95143
       O   -12.51632   15.22825    5.87673
      H1   -13.28116   15.64815    6.22756
       H    -6.81372   12.75294    9.46761
       O    -6.69535   11.89689    9.94010
      H1    -7.55745   11.44466   10.08983
       H   -18.05412   15.78228    5.93075
       O   -18.63809   15.23376    6.47357
      H1   -19.34620   15.84794    6.72548
       H    -7.00931   15.82356   10.54513
       O    -7.83008   16.29112   10.34600
      H1    -8.60646   15.85953   10.76985
       H    -9.80967   11.85106    7.92911
       O    -9.41431   11.52846    7.08524
      H1    -9.61986   10.61146    7.03709
       H   -10.38928   11.28840    9.84855
       O   -10.76941   12.13410    9.52090
      H1   -11.74712   11.96419    9.40736
       H   -17.84022   17.32203   11.04105
       O   -17.66270   17.10841   11.98156
      H1   -17.21702   17.83595   12.43560
       H    -6.33570   10.98463    7.59034
       O    -6.70924   11.57358    6.93188
      H1    -7.67924   11.54203    6.98182
       H   -18.32182    9.81335    9.26849
       O   -19.09824    9.32320    9.43021
      H1   -18.94600    8.59655   10.09537
       H   -12.52268    5.90863    8.75945
       O   -12.98383    5.27845    8.14273
      H1   -12.64977    4.44504    8.54770
       H   -19.11043   13.50297   12.12170
       O   -19.62707   13.34411   11.30209
      H1   -19.93650   12.42020   11.24047
       H   -14.16454   12.35305    8.86980
       O   -13.47719   11.85698    9.32740
      H1   -13.28980   11.11070    8.73101
       H   -16.72629   12.65281    8.15898
       O   -15.87232   13.10636    8.31502
      H1   -15.44882   13.12266    7.43506

