171
frame 10 | Written by MDAnalysis XYZWriter (release 2.4.3)
       H   -17.06357   -1.06337   -9.35094
       O   -16.12726   -1.06431   -9.60227
      H1   -15.66030   -0.54179   -8.95020
       H   -11.62670   -2.19621   -9.94302
       O   -11.06260   -1.36736   -9.92067
      H1   -10.97185   -1.23566  -10.85036
       H   -17.17284   -5.89537   -7.53960
       O   -17.88523   -6.49929   -7.17536
      H1   -18.32867   -6.07647   -6.40172
       H   -15.61110   -2.40092  -10.69227
       O   -15.48700   -3.29746  -11.07497
      H1   -15.61173   -3.31121  -12.00794
       H    -8.89193    0.05579   -7.82360
       O    -8.75404   -0.52774   -8.52311
      H1    -9.58808   -0.71050   -8.89238
       H    -8.72829  -10.61937  -11.17018
       O    -8.29767  -10.50896  -12.05581
      H1    -7.41801  -10.15461  -11.73293
       H   -11.61018   -9.93818  -13.34771
       O   -11.95633  -10.36022  -14.14123
      H1   -11.17310  -10.69014  -14.65088
       H   -16.97575   -4.13640  -13.38054
       O   -16.04387   -4.10064  -13.61990
      H1   -15.60569   -4.94294  -13.30265
       H   -11.76155   -5.42981  -12.12846
       O   -11.47883   -5.49046  -11.18809
      H1   -11.98467   -4.75847  -10.74959
       H   -13.92155   -3.57119   -5.87339
       O   -14.14286   -4.35272   -5.30841
      H1   -14.52379   -4.09095   -4.48418
       H   -11.04159   -7.92547   -5.89980
       O   -11.82438   -7.78032   -5.27126
      H1   -12.49526   -7.31583   -5.75985
       H   -15.95409   -3.99454   -7.74384
       O   -15.84349   -4.80985   -8.29379
      H1   -16.15650   -4.40774   -9.11784
       H    -7.36733   -6.07869   -9.06706
       O    -7.90820   -6.89429   -9.04642
      H1    -8.26091   -7.05094   -9.95337
       H    -9.58839  -12.57896   -9.86592
       O    -8.98741  -11.88900   -9.48394
      H1    -9.27827  -11.81256   -8.55654
       H    -8.12117   -7.00255   -4.20378
       O    -7.28806   -6.55878   -4.43893
      H1    -7.38399   -6.21536   -5.35822
       H   -16.22276   -3.20697   -5.90542
       O   -16.69559   -2.88259   -6.65030
      H1   -16.12912   -2.10899   -6.88923
       H   -18.63021   -6.27231  -11.06075
       O   -18.33468   -5.60529  -10.40359
      H1   -17.74321   -6.15414   -9.91606
       H   -13.03065    0.74065   -8.85816
       O   -13.34507   -0.07365   -9.21229
      H1   -12.51096   -0.44356   -9.48754
       H   -13.19959   -7.81184   -9.81716
       O   -14.05880   -7.33082   -9.83157
      H1   -13.79833   -6.43718  -10.13348
       H    -9.50892   -5.65428   -7.27358
       O    -8.80434   -5.20518   -6.79035
      H1    -8.07240   -5.35091   -7.40306
       H    -5.08054   -9.11506  -11.81404
       O    -5.77480   -9.50432  -11.26585
      H1    -5.54578   -9.10557  -10.39975
       H    -5.86653   -0.00945  -10.39619
       O    -6.25489   -0.77168   -9.96461
      H1    -7.13501   -0.60933   -9.56344
       H   -14.12982   -6.61503   -7.97162
       O   -13.68363   -6.58933   -7.13047
      H1   -14.06895   -5.84384   -6.66365
       H    -8.85042   -7.06230  -12.31073
       O    -9.24241   -7.15341  -11.45889
      H1    -9.86898   -6.44915  -11.25905
       H   -13.78533  -10.78528  -11.08720
       O   -14.36477  -10.41380  -11.72325
      H1   -14.51146  -11.22570  -12.28720
       H    -6.19931   -3.08267  -12.24841
       O    -5.51054   -2.35551  -12.33570
      H1    -5.80965   -1.73102  -11.62762
       H    -9.93214   -9.86443  -12.09629
       O   -10.74873   -9.41304  -11.80432
      H1   -10.29222   -8.56638  -11.73263
       H   -13.94730   -9.51730   -3.43593
       O   -13.01678   -9.67631   -3.69662
      H1   -12.68962   -9.13062   -4.40619
       H    -7.14118   -8.38601   -8.03201
       O    -7.26252   -8.97293   -7.31081
      H1    -6.47201   -8.83459   -6.77316
       H   -10.55864   -3.00836  -13.90077
       O    -9.88706   -3.59913  -14.21352
      H1    -9.99683   -3.62434  -15.13292
       H   -12.02172   -6.34695   -8.20964
       O   -11.21716   -5.77850   -8.39827
      H1   -10.96041   -5.96461   -9.27407
       H   -10.13796  -10.39773   -6.88833
       O    -9.80091  -11.29549   -6.65003
      H1   -10.55562  -11.86539   -6.51545
       H   -10.12876   -8.07688   -7.76894
       O    -9.81257   -8.37959   -6.93946
      H1    -8.90777   -8.55948   -7.04312
       H   -12.15131   -4.11980   -4.02465
       O   -12.21128   -4.36917   -3.04596
      H1   -11.65452   -3.74102   -2.55269
       H    -6.38799   -8.19551   -4.79357
       O    -5.88564   -8.98979   -4.94715
      H1    -6.42729   -9.71747   -4.75560
       H    -8.65888  -11.17710   -5.18237
       O    -8.21702  -10.69908   -4.51892
      H1    -8.04960  -11.27271   -3.77296
       H   -14.20363   -0.54726   -7.42747
       O   -14.81795   -0.79288   -6.73308
      H1   -14.41582   -0.70539   -5.86205
       H    -5.53427   -4.44505   -8.47682
       O    -5.94142   -5.12744   -7.96453
      H1    -5.39157   -5.30193   -7.17443
       H   -10.11557   -1.09338   -4.20839
       O    -9.54584   -0.83528   -4.99122
      H1    -9.52169   -1.61641   -5.53476
       H   -10.15731   -7.20751  -15.31112
       O    -9.44470   -6.78271  -14.77203
      H1    -9.73446   -5.84686  -14.82386
       H   -13.34224   -3.52023   -9.08916
       O   -13.08944   -3.54892  -10.01888
      H1   -13.99926   -3.39263  -10.43120
       H    -9.05162   -9.11025   -4.09963
       O    -9.34723   -8.33817   -3.56218
      H1   -10.15716   -7.97124   -3.99474
       H   -15.65193   -8.30686   -9.99701
       O   -16.42684   -8.90476  -10.22118
      H1   -15.85036   -9.58813  -10.56291
       H    -9.19471   -3.69386   -6.99612
       O    -9.54727   -2.76969   -6.99246
      H1    -9.11081   -2.22585   -7.63985
       H   -13.07167   -7.42795   -2.03912
       O   -13.31345   -6.54602   -1.76567
      H1   -12.88003   -5.93798   -2.43467
       H    -8.65531   -3.71650  -12.86222
       O    -7.87434   -4.03539  -12.34165
      H1    -7.96648   -4.98587  -12.40292
       H   -17.49732   -9.75258   -7.06758
       O   -16.97287  -10.18780   -6.38601
      H1   -16.10715   -9.79319   -6.57172
       H   -17.39450   -8.38540   -4.56203
       O   -16.56625   -7.97747   -4.33647
      H1   -16.41328   -7.29551   -4.94297
       H   -10.97941   -8.37927   -9.94471
       O   -11.54573   -8.41451   -9.16344
      H1   -11.93113   -9.31700   -9.21501
       H    -5.25947   -2.12231   -9.13912
       O    -4.61351   -2.81426   -8.91855
      H1    -4.23568   -3.12425   -9.68908
       H   -13.26216  -12.15064   -9.37137
       O   -12.76929  -11.48986   -8.89079
      H1   -13.38579  -11.16434   -8.21294
       H    -8.17312   -5.24617   -2.19876
       O    -7.86430   -4.78045   -1.36655
      H1    -8.27392   -5.20941   -0.60994
       H    -4.73017   -7.30348   -9.26377
       O    -4.85856   -8.20384   -8.94649
      H1    -3.94966   -8.53617   -8.90804
       H    -6.81662  -10.78649   -8.11164
       O    -6.53708  -11.54168   -8.64125
      H1    -7.34586  -11.93638   -9.03602
       H   -15.01495  -11.02349   -6.88860
       O   -14.24536  -10.47507   -6.75010
      H1   -13.55621  -10.94169   -6.33271
       H   -12.15359   -4.28244   -7.80515
       O   -12.52436   -3.52788   -7.38377
      H1   -11.76398   -2.98604   -7.13321
       H   -15.09601   -6.79661  -12.18832
       O   -14.74936   -6.47132  -13.00949
      H1   -14.61232   -7.35296  -13.42665

