171
frame 11 | Written by MDAnalysis XYZWriter (release 2.4.3)
       H    -7.26626   -9.73762    3.91724
       O    -6.63633   -9.53459    4.61060
      H1    -7.04906   -8.79855    5.10936
       H    -1.25267   -8.44079    0.49278
       O    -2.10962   -8.76844    0.81848
      H1    -2.12087   -8.53830    1.78923
       H     2.58271  -10.82343    0.64864
       O     2.14398  -10.96279   -0.21146
      H1     2.77797  -10.54468   -0.79977
       H    -3.83259   -6.22426    0.04782
       O    -4.13010   -7.13548    0.09761
      H1    -3.31176   -7.74616    0.23621
       H    -6.67884  -10.62094    0.43964
       O    -6.32785  -11.45836    0.32915
      H1    -6.45348  -11.68433   -0.64814
       H     0.13844   -8.47337   -2.02650
       O    -0.02824   -8.51764   -2.96075
      H1    -0.41000   -7.66876   -3.13845
       H     1.32424   -8.39138   -3.84744
       O     2.29748   -8.37232   -4.07107
      H1     2.38972   -8.09746   -5.03834
       H    -0.62910   -4.88176   -3.03191
       O    -0.23001   -4.87883   -3.95231
      H1    -0.87773   -4.38166   -4.46780
       H     1.15573  -10.98452   -4.56073
       O     0.97803  -10.95533   -5.49771
      H1     1.78431  -11.34217   -5.82086
       H    -0.96342   -5.60303    5.96482
       O    -0.51012   -6.08888    6.66226
      H1    -1.03366   -6.91361    6.69827
       H    -3.87821   -2.18095   -1.58146
       O    -3.21843   -2.67687   -2.10163
      H1    -2.54649   -2.04505   -2.38218
       H     2.90847   -5.62034    1.92117
       O     2.69533   -6.57264    1.74417
      H1     3.40158   -7.10650    2.12341
       H    -0.24273   -4.92142    1.49387
       O     0.08655   -4.15766    0.96772
      H1     1.02766   -4.02828    1.14021
       H    -8.72993   -8.82720    1.85553
       O    -8.02626   -9.41209    2.10611
      H1    -7.23911   -8.85210    1.97379
       H     3.12403  -11.60632    3.24466
       O     3.23517  -10.76517    2.79751
      H1     2.36953  -10.31266    3.02269
       H     3.04112   -3.98769   -1.92457
       O     2.39438   -4.64837   -2.21763
      H1     2.93730   -5.45803   -2.23558
       H    -0.57728  -13.01823   -3.66162
       O     0.02096  -12.55487   -3.07168
      H1    -0.52259  -11.79346   -2.82210
       H     4.27263   -6.19855   -3.24795
       O     3.92703   -6.80310   -2.58789
      H1     3.33200   -7.37666   -3.14848
       H     0.90604  -15.20303   -3.20539
       O     1.21091  -14.74510   -2.38391
      H1     0.89991  -13.83962   -2.51938
       H    -5.14898  -10.06622    3.85510
       O    -4.34362  -10.62892    3.69724
      H1    -3.64058  -10.31091    4.25430
       H    -4.75587  -11.97453   -4.42835
       O    -4.84833  -12.95343   -4.55382
      H1    -5.63210  -13.14606   -5.13731
       H    -1.01802  -13.08724    4.71693
       O    -0.57414  -12.45427    5.26185
      H1     0.26736  -12.16432    4.97254
       H    -5.15553   -7.74276    3.74260
       O    -4.67312   -7.14025    4.36282
      H1    -4.52160   -6.42302    3.77194
       H    -7.17768   -7.31274   -0.92860
       O    -7.62167   -6.59166   -0.46720
      H1    -7.10717   -6.38405    0.29313
       H    -4.18918  -12.32226    2.41751
       O    -4.00489  -13.26132    2.33051
      H1    -4.35248  -13.46993    1.45815
       H     1.16252   -7.89605    0.12228
       O     0.48118   -8.52066   -0.04901
      H1     0.99583   -9.36910   -0.12491
       H    -0.56630  -10.21534    7.37317
       O    -1.23976  -10.93194    7.38919
      H1    -0.95334  -11.55261    6.65900
       H    -1.44625  -14.52578   -0.65736
       O    -2.28372  -14.13330   -0.86600
      H1    -2.24819  -13.59744   -1.67586
       H    -2.01452   -8.51133    5.27676
       O    -1.98634   -8.60175    6.20763
      H1    -1.54965   -9.40950    6.41474
       H    -5.69831   -7.28441   -2.30825
       O    -5.66318   -8.06475   -1.71129
      H1    -5.00745   -7.76765   -1.02484
       H     0.24822  -15.11490    0.85353
       O    -0.15799  -15.60209    0.14274
      H1     0.43890  -15.55758   -0.65251
       H    -2.45123   -4.52721    0.02656
       O    -3.06264   -4.27635    0.70611
      H1    -3.23282   -3.32174    0.59004
       H    -1.33153  -10.49523    1.12367
       O    -0.79124  -11.25324    1.29624
      H1    -1.35093  -11.99684    0.88983
       H    -3.93271   -9.14010    6.89402
       O    -4.81592   -9.54726    6.98992
      H1    -4.99939  -10.06883    6.19543
       H    -7.93576  -12.24260   -2.15592
       O    -6.95865  -12.19919   -2.34521
      H1    -6.62383  -13.08594   -2.63310
       H    -5.99932   -4.90037    1.86672
       O    -6.94294   -5.04903    1.66788
      H1    -7.18440   -4.97110    2.60555
       H    -4.35039  -11.43430    0.01423
       O    -3.44878  -11.59438   -0.22120
      H1    -3.41241  -12.56199   -0.32075
       H     0.80694   -8.86453    6.54953
       O     0.88953   -9.68719    6.06583
      H1     1.61864  -10.18437    6.48846
       H     0.87352  -12.35308    1.57477
       O     1.43750  -13.20040    1.70543
      H1     2.06510  -13.15322    0.96150
       H    -5.30558  -15.45919    0.47979
       O    -5.45394  -14.59441    0.14916
      H1    -6.17165  -14.21714    0.73750
       H    -0.77593   -3.86602    4.38547
       O    -1.28711   -4.69249    4.44436
      H1    -2.19745   -4.44004    4.61998
       H    -1.48807   -7.70333    3.29681
       O    -2.15517   -8.39460    3.44496
      H1    -2.94213   -7.84027    3.52926
       H    -0.38479   -4.35003   -0.65636
       O    -0.98592   -4.60664   -1.38829
      H1    -1.22656   -3.77843   -1.73918
       H    -7.63525  -12.94236    1.57713
       O    -8.03173  -13.76992    1.85834
      H1    -8.25897  -14.25650    1.04960
       H     5.23887   -9.43990   -1.46253
       O     4.45445   -9.06177   -1.04555
      H1     4.43520   -8.13407   -1.22549
       H     0.84651   -9.81483    4.30965
       O     0.79636   -9.76948    3.30304
      H1     0.14248  -10.42329    3.04994
       H     3.43927  -13.37058    4.69286
       O     2.59919  -12.86632    4.43485
      H1     2.30164  -13.37443    3.66568
       H    -1.88255   -1.58375    1.66660
       O    -0.99153   -1.52468    1.28342
      H1    -0.70336   -2.45890    1.17708
       H    -2.66450  -13.94775    3.59797
       O    -2.22956  -14.35018    4.41419
      H1    -2.90864  -14.16043    5.12784
       H    -4.90015   -4.77566    6.48548
       O    -5.75770   -5.31551    6.49765
      H1    -5.42236   -6.14690    6.19838
       H    -4.80196   -9.35467    2.23118
       O    -5.26482   -8.51260    2.07139
      H1    -4.75564   -8.11155    1.37081
       H    -0.38292   -5.96670    3.50627
       O    -0.32118   -6.47871    2.68541
      H1     0.52683   -6.95114    2.66520
       H    -3.69929   -9.12585   -5.29243
       O    -3.30210   -8.41010   -5.83023
      H1    -3.79927   -8.64407   -6.67870
       H    -4.80838   -9.57433   -3.14916
       O    -4.31444  -10.07068   -3.82818
      H1    -3.44794  -10.27653   -3.46926
       H    -2.38685  -10.93839   -1.74704
       O    -1.92794  -10.61735   -2.54025
      H1    -1.43703   -9.83247   -2.23106
       H    -6.00452   -4.80947   -2.48662
       O    -5.13530   -5.09201   -2.80070
      H1    -4.48699   -4.35356   -2.65083
       H    -3.77534   -4.74659    2.34726
       O    -4.54399   -4.72745    2.93238
      H1    -4.58682   -3.83658    3.31265

