171
frame 6 | Written by MDAnalysis XYZWriter (release 2.4.3)
       H     7.25616   -8.03319  -13.03942
       O     7.12472   -8.95541  -12.84190
      H1     7.94101   -9.37280  -12.47903
       H     6.42615   -5.62916  -13.65663
       O     7.24305   -6.14953  -13.56585
      H1     7.53778   -5.61689  -12.78174
       H    11.89861  -10.47294  -11.18067
       O    11.57090   -9.54685  -11.17592
      H1    11.92667   -8.99201  -11.89843
       H    11.94741   -8.47660   -9.77476
       O    12.23374   -7.96749   -9.01357
      H1    13.20089   -8.16221   -8.99806
       H     7.53907  -10.11999   -9.60223
       O     7.59684   -9.27000   -9.05222
      H1     7.79303   -8.60478   -9.70339
       H    13.19352   -2.08606  -10.56217
       O    12.81141   -1.27987  -10.25429
      H1    11.96533   -1.22675  -10.76062
       H     3.23093   -9.36151   -8.37606
       O     2.96504   -8.49176   -8.64357
      H1     3.72597   -8.06967   -9.07046
       H    16.49749   -5.64778  -12.04942
       O    15.59249   -5.85884  -12.22811
      H1    15.32431   -6.68168  -11.75463
       H     9.11044   -9.98938  -14.30361
       O     9.62432   -9.52714  -14.96822
      H1     9.09489   -9.61638  -15.74902
       H     6.98687   -5.89187   -8.84818
       O     6.43836   -5.61310   -8.09342
      H1     5.92855   -4.80233   -8.35788
       H    10.68471  -12.69308   -8.53888
       O     9.76341  -12.54924   -8.74900
      H1     9.41866  -13.40967   -8.94743
       H    13.56730  -11.74903   -7.87965
       O    14.19166  -11.01785   -7.76822
      H1    15.04626  -11.35091   -8.19401
       H    10.28607   -3.04322  -10.32528
       O    10.61595   -3.77665  -10.91566
      H1    10.96779   -3.32084  -11.75578
       H    12.16854  -12.32236   -4.28599
       O    11.80208  -11.45206   -4.23414
      H1    11.11997  -11.40643   -4.90567
       H    13.57046  -14.02261  -11.33813
       O    13.05087  -14.19409  -10.54229
      H1    13.15123  -15.13633  -10.34705
       H    11.67315   -7.97394   -0.30583
       O    11.09096   -7.22747   -0.37027
      H1    10.64255   -7.39984   -1.26280
       H     9.37215   -6.29109   -5.17859
       O    10.02848   -6.95058   -5.20277
      H1    10.04941   -7.19358   -6.11471
       H     7.13118   -2.58829   -9.10843
       O     6.71636   -2.93678   -9.92470
      H1     6.66350   -2.12697  -10.50166
       H    15.17167   -3.62108  -11.17221
       O    14.47943   -3.41383  -10.49346
      H1    14.34441   -4.19261   -9.95639
       H     8.61058  -11.25775   -6.02868
       O     9.36508  -11.83917   -5.95246
      H1     9.40379  -12.20895   -6.86760
       H    12.67454   -9.63664   -4.12545
       O    13.19574   -8.89750   -3.72555
      H1    13.96786   -9.35427   -3.28337
       H    14.63192   -9.32974   -8.34563
       O    14.84317   -8.36747   -8.49911
      H1    14.62525   -8.01960   -7.63742
       H    15.76202   -4.29745   -5.13370
       O    15.32533   -5.14652   -5.13042
      H1    15.31819   -5.30630   -4.19058
       H    14.15854   -8.00780   -5.03046
       O    14.71016   -7.85340   -5.82325
      H1    14.80276   -6.88341   -5.83960
       H     8.97508   -6.93691   -9.22429
       O     8.28727   -6.71735   -9.89085
      H1     8.59478   -5.87566  -10.33623
       H    13.17561  -13.54416   -7.44014
       O    12.48338  -13.07963   -8.05128
      H1    12.78578  -13.47696   -8.91843
       H    13.30375   -6.03030   -8.88337
       O    13.94109   -5.36872   -8.78335
      H1    13.36921   -4.63269   -8.35143
       H     5.79226  -10.21663  -12.94416
       O     5.07356  -10.84694  -12.93244
      H1     4.27504  -10.32966  -12.66645
       H     4.79577   -5.95312   -4.31171
       O     5.51363   -5.46266   -3.85453
      H1     6.26836   -5.39734   -4.40933
       H    10.17201   -5.02529   -2.24150
       O    10.38157   -4.24715   -2.67044
      H1    10.70804   -3.55566   -2.11728
       H    10.62075  -12.46434  -10.23834
       O    11.27748  -12.38724  -10.94153
      H1    11.82041  -13.17670  -10.80949
       H     9.77543   -1.21936   -9.06108
       O     9.93776   -1.25214  -10.01655
      H1     9.06651   -0.97768  -10.35942
       H     6.47503  -10.74710   -5.91559
       O     6.99019  -10.02137   -6.23184
      H1     6.73152   -9.93066   -7.10971
       H    15.09075   -9.60131  -14.96057
       O    14.58124   -9.66850  -14.15173
      H1    13.79098  -10.18377  -14.41139
       H     8.32284   -0.22847   -7.64555
       O     8.28863   -1.19760   -7.77854
      H1     7.96702   -1.55086   -6.92102
       H    12.39494   -4.03147   -6.45892
       O    12.24659   -3.62302   -7.36127
      H1    12.35835   -2.66673   -7.10646
       H    15.10845   -9.09552  -11.51026
       O    14.66025   -8.28238  -11.17624
      H1    14.77617   -8.31267  -10.19562
       H    12.40197   -7.05000  -12.73089
       O    12.35247   -7.89770  -13.26298
      H1    13.27028   -8.28339  -13.18067
       H    13.95984   -7.06117   -2.79736
       O    14.26773   -6.18124   -2.84923
      H1    13.52203   -5.76246   -3.27615
       H    12.67153   -0.97557   -4.59310
       O    12.84044   -1.92192   -4.53247
      H1    12.18692   -2.42835   -5.06399
       H    10.06222   -7.52845  -15.06131
       O     9.38969   -6.82842  -15.32741
      H1     8.56494   -7.21408  -15.04127
       H    13.42913   -5.55834  -11.50675
       O    12.64695   -5.63055  -11.95391
      H1    11.93334   -5.36784  -11.40783
       H    17.00183  -11.04778   -8.90908
       O    16.48182  -11.79489   -9.20561
      H1    16.31108  -11.69003  -10.10968
       H    16.14687   -8.66729   -5.23147
       O    16.96227   -9.09530   -4.86467
      H1    17.68209   -8.45498   -5.02864
       H    10.70092   -7.98343   -8.27839
       O     9.78712   -7.73363   -7.91639
      H1     9.36869   -8.59738   -7.86227
       H    11.21387  -10.49996  -14.55419
       O    11.88766  -11.28276  -14.54510
      H1    11.84189  -11.63775  -15.40044
       H    11.56438   -4.53542   -4.02815
       O    12.00660   -4.72500   -4.85028
      H1    11.58835   -5.47750   -5.20803
       H    10.02819  -10.43279  -12.06287
       O     9.24774  -10.76698  -12.48546
      H1     9.63296  -11.58117  -12.90091
       H     9.04054   -4.12237  -11.25787
       O     8.12225   -4.50395  -11.38876
      H1     7.61401   -3.97463  -10.76434
       H     6.35219   -8.82135   -4.84278
       O     5.57294   -8.61957   -4.29809
      H1     5.76586   -8.13782   -3.48182
       H     5.48593   -6.72043   -9.20973
       O     5.12496   -7.35473   -9.87026
      H1     5.84278   -7.96926   -9.88121
       H     8.51725  -14.78857   -6.14772
       O     9.27048  -14.61395   -5.53041
      H1     9.38093  -13.58864   -5.42715
       H    10.26885  -11.41961   -1.50380
       O    10.86815  -10.63727   -1.64577
      H1    11.42279  -10.90377   -2.39676
       H     7.42622   -5.14879   -6.52152
       O     7.65196   -5.24610   -5.61758
      H1     8.05563   -4.40356   -5.38809
       H    16.98948   -6.38999   -9.04133
       O    16.76553   -5.44852   -8.88239
      H1    15.79378   -5.47154   -8.90282
       H    16.43328  -11.64395  -12.50213
       O    15.87511  -10.97346  -12.07979
      H1    15.53154  -10.41791  -12.81064
       H     9.97603   -9.06134   -2.28494
       O     9.65269   -8.11808   -2.46373
      H1     9.69252   -7.93405   -3.37609

