171
frame 8 | Written by MDAnalysis XYZWriter (release 2.4.3)
       H    -7.93314  -16.41018  -10.83425
       O    -8.57444  -17.12140  -10.68338
      H1    -8.11531  -17.92690  -10.89613
       H    -3.60744  -15.66906  -11.90256
       O    -4.53837  -15.39147  -11.69023
      H1    -4.57186  -14.41539  -11.88811
       H    -9.49116  -17.31203   -4.66701
       O    -9.01406  -16.80069   -5.26909
      H1    -8.15639  -17.23997   -5.28673
       H    -8.89033  -10.82311  -10.35740
       O    -8.62982  -10.16038  -11.02076
      H1    -7.66690  -10.10600  -10.79929
       H   -11.23231  -16.44137  -11.92067
       O   -11.38459  -16.40928  -10.98008
      H1   -10.53431  -16.56546  -10.55770
       H   -11.20757  -10.86995  -13.21139
       O   -11.39069  -11.39048  -13.98090
      H1   -10.61540  -11.90139  -14.16424
       H    -9.89285  -13.91571  -12.08510
       O   -10.41755  -13.53100  -11.34533
      H1   -10.84247  -14.33766  -11.01805
       H   -10.93783   -7.76763   -5.32525
       O   -11.21629   -7.51258   -4.40114
      H1   -11.63666   -6.62637   -4.40065
       H    -7.73975  -14.95746  -13.67955
       O    -7.88361  -14.05773  -13.28117
      H1    -7.01017  -13.75398  -13.08015
       H    -8.50097   -5.01209  -10.56914
       O    -8.72634   -5.81773  -10.11134
      H1    -9.47321   -6.13938  -10.60285
       H    -9.92433  -12.62602   -9.81353
       O    -9.59658  -12.17715   -8.98926
      H1    -9.71711  -12.87759   -8.32197
       H    -9.66899   -5.70445   -4.40148
       O    -8.75004   -5.37551   -4.38975
      H1    -8.46534   -5.48339   -5.27926
       H    -9.83524  -15.62565   -8.06543
       O    -9.65323  -14.65514   -7.84074
      H1    -9.46698  -14.63497   -6.88446
       H    -7.48580  -10.78625  -14.20113
       O    -6.76795  -10.22020  -13.89778
      H1    -7.15876   -9.71926  -13.13704
       H    -2.53061  -14.15023   -5.08102
       O    -2.32358  -13.19985   -4.96350
      H1    -3.20405  -12.77662   -4.74318
       H    -6.83031  -18.70649   -5.82714
       O    -6.36725  -17.90271   -5.59343
      H1    -6.24381  -17.43074   -6.46909
       H    -8.72021  -13.31284  -14.76884
       O    -9.25639  -12.84337  -15.40297
      H1    -8.59629  -12.31608  -15.94530
       H   -10.70700  -12.47550   -2.23105
       O    -9.97104  -11.94260   -1.79263
      H1   -10.40397  -11.15662   -1.37743
       H    -5.29043  -15.90477   -7.28909
       O    -5.97469  -16.34132   -7.85046
      H1    -6.59449  -15.64840   -8.10105
       H   -13.26355   -8.37401   -9.61987
       O   -13.89889   -7.64268   -9.40458
      H1   -13.62315   -6.92559   -9.99089
       H    -8.24046   -5.36301   -8.09857
       O    -7.84503   -5.45683   -7.22944
      H1    -6.94579   -5.68234   -7.35827
       H    -4.75116  -11.51687   -3.89082
       O    -4.80677  -12.35708   -4.46493
      H1    -5.72586  -12.50069   -4.71998
       H    -5.53364   -9.00348  -11.55499
       O    -5.86250   -9.60179  -10.91226
      H1    -5.25152   -9.61194  -10.18548
       H   -10.30424   -6.52232  -13.29422
       O   -10.32814   -6.45913  -12.29457
      H1   -11.20350   -6.04691  -12.16100
       H    -5.37213  -12.31689  -13.02431
       O    -5.37479  -12.64520  -12.08675
      H1    -5.56769  -11.82773  -11.60923
       H    -9.99138   -9.59346  -11.83421
       O   -10.97115   -9.48224  -11.82106
      H1   -11.07851   -8.67238  -12.33929
       H    -7.82339   -7.97419   -8.99683
       O    -7.74107   -8.23201   -8.04068
      H1    -7.57634   -7.46141   -7.52520
       H    -9.96649   -6.04795   -9.11557
       O   -10.81306   -6.30355   -8.74021
      H1   -10.53655   -7.05792   -8.12696
       H   -10.31199   -9.83084   -6.00213
       O   -10.01308  -10.29932   -5.16398
      H1   -10.80469  -10.46529   -4.69636
       H    -9.40603  -15.01363   -5.09223
       O    -9.61801  -14.01427   -4.99339
      H1   -10.42418  -13.97575   -4.50749
       H    -3.97608  -14.27370   -7.04012
       O    -4.47096  -14.75182   -6.40158
      H1    -5.16570  -14.17990   -6.01143
       H   -10.85099   -8.79657   -7.89596
       O   -10.42868   -8.47188   -7.05909
      H1    -9.50165   -8.56614   -7.26194
       H    -6.58935   -8.25492   -4.12484
       O    -6.19527   -8.82672   -4.82421
      H1    -6.55988   -9.66927   -4.56742
       H    -8.56694  -10.95953   -4.19257
       O    -7.76614  -10.81714   -3.67761
      H1    -7.77211  -11.50871   -3.05423
       H    -4.82819   -6.07043   -8.69957
       O    -5.24107   -6.49736   -7.95147
      H1    -4.55385   -6.82970   -7.31516
       H    -2.35544  -13.09226   -7.71609
       O    -2.96935  -13.48960   -8.28701
      H1    -3.71145  -12.81134   -8.38472
       H   -12.64700   -9.61741   -3.81918
       O   -12.26308  -10.53882   -3.72826
      H1   -13.00576  -11.13250   -3.80494
       H    -2.01665   -9.89026   -8.82319
       O    -1.22229  -10.22558   -8.42009
      H1    -1.47567  -10.08038   -7.44374
       H    -3.24218  -12.36768  -12.80297
       O    -2.26540  -12.33723  -12.69592
      H1    -2.15591  -12.85145  -11.90198
       H    -5.55499  -13.91784   -3.34050
       O    -5.85358  -14.74021   -2.86274
      H1    -5.26195  -14.81461   -2.07016
       H    -8.89025   -9.52749   -3.21673
       O    -9.34938   -8.80820   -2.80855
      H1    -9.68447   -8.23702   -3.51888
       H    -4.31911   -4.59093  -11.04557
       O    -4.60174   -5.24593  -10.33859
      H1    -4.67803   -6.10071  -10.77375
       H    -4.38232   -7.14368   -5.32152
       O    -3.60573   -7.11467   -5.88179
      H1    -3.06702   -6.44421   -5.48236
       H    -7.31500  -13.61788  -10.21910
       O    -7.48916  -14.34132   -9.63379
      H1    -8.29654  -14.19784   -9.18025
       H    -3.67011   -7.36378  -12.46619
       O    -4.67275   -7.39067  -12.57044
      H1    -4.83059   -6.73651  -13.27675
       H   -12.75148  -13.17344   -7.55725
       O   -12.30486  -14.05898   -7.57931
      H1   -11.30335  -13.77840   -7.60607
       H   -10.43830  -18.11588   -7.93104
       O    -9.72033  -17.48270   -7.88916
      H1    -9.71026  -17.36835   -6.93150
       H   -11.54710   -9.81500  -10.05716
       O   -11.75198   -9.64419   -9.12054
      H1   -12.28327  -10.43176   -8.81987
       H   -13.73230  -12.10680   -8.90845
       O   -13.37871  -11.52533   -8.24549
      H1   -14.15914  -11.24786   -7.70313
       H    -7.98616  -13.33236   -5.37411
       O    -7.11227  -13.30003   -5.78037
      H1    -7.18768  -12.62620   -6.40918
       H    -3.60018   -8.44907   -8.89815
       O    -3.66461   -9.40907   -9.10649
      H1    -3.85764   -9.89836   -8.29648
       H    -7.33576  -10.09958   -7.56587
       O    -7.37926  -11.00769   -7.81501
      H1    -8.19399  -11.13373   -8.37262
       H    -5.79012  -13.33578   -9.18779
       O    -5.43230  -12.48651   -9.12423
      H1    -6.06712  -11.99343   -8.51697
       H   -13.86112  -14.04123  -10.59054
       O   -14.22330  -13.93191   -9.70320
      H1   -13.89167  -14.67364   -9.20830
       H    -2.90361   -9.82597   -4.69722
       O    -2.49902   -9.56486   -5.52755
      H1    -2.91223   -8.67108   -5.57371
       H   -12.39074  -13.13814   -3.35243
       O   -11.59061  -13.62624   -3.13337
      H1   -11.87653  -14.31348   -2.51018
       H   -10.75394   -5.06805   -7.44322
       O   -10.68746   -4.32073   -6.81997
      H1    -9.79349   -3.92769   -6.89549

