171
frame 8 | Written by MDAnalysis XYZWriter (release 2.4.3)
       H    14.16877  -13.33383    3.44933
       O    13.54433  -12.90718    2.88452
      H1    12.82759  -13.54210    2.61047
       H     8.17651  -12.08781    6.24679
       O     8.68570  -12.83964    6.64027
      H1     8.19765  -13.15562    7.39398
       H    16.85764  -14.54294   -0.23496
       O    16.98661  -13.69347   -0.63518
      H1    16.88193  -13.87817   -1.61232
       H     9.40263  -12.97957   -1.17745
       O     8.54819  -12.65869   -1.50343
      H1     8.69539  -12.06023   -2.21830
       H    11.31477  -14.40646    1.46708
       O    11.66948  -14.66367    2.34127
      H1    12.07512  -15.56108    2.34982
       H    18.60604  -13.11651   -0.31070
       O    19.46277  -12.66588   -0.34186
      H1    19.63223  -12.32945    0.51930
       H    13.59276   -7.08356    2.43186
       O    14.03306   -6.46639    3.02199
      H1    14.96232   -6.19331    2.64143
       H    13.91331   -9.00387   -0.20631
       O    13.22956   -8.50092   -0.80707
      H1    12.76098   -9.20043   -1.22423
       H    13.99358  -16.55174   -2.43734
       O    13.44468  -15.76123   -2.63026
      H1    13.08491  -16.17078   -3.42188
       H    17.86328  -10.20924   -0.40261
       O    17.65978   -9.66844    0.37427
      H1    16.70049   -9.73245    0.55670
       H    14.41239  -12.30780    1.43363
       O    14.93588  -12.08922    0.60899
      H1    15.70475  -12.69211    0.81470
       H     7.82357  -14.13504    5.66841
       O     7.49724  -14.90187    5.19491
      H1     7.68210  -14.75324    4.26854
       H     8.48001  -16.19568   -0.53534
       O     8.86562  -15.52120   -0.00655
      H1     8.66752  -15.83604    0.87470
       H    18.05569  -11.89668    3.41423
       O    17.44176  -11.70442    4.11613
      H1    17.10070  -10.82601    3.90693
       H    10.59653  -18.21327   -0.03824
       O    10.16488  -19.02533    0.23300
      H1     9.25511  -18.89965   -0.12743
       H    15.49019  -13.70594    5.35857
       O    15.83348  -13.72660    4.47558
      H1    16.50826  -13.01570    4.36024
       H    11.62845   -9.11306    5.81393
       O    11.92997   -9.94033    6.18436
      H1    12.71579   -9.59805    6.63268
       H    19.30997  -15.27233    5.27703
       O    19.58668  -15.16766    6.19957
      H1    19.16726  -15.88548    6.67613
       H    15.03884  -10.42745    1.09331
       O    15.05764   -9.46284    0.97674
      H1    15.31113   -9.09211    1.89708
       H    15.77372  -11.55789    9.28723
       O    15.02919  -11.55424    8.66255
      H1    14.41705  -12.15467    9.06445
       H     8.35703  -13.08991    2.86414
       O     7.92871  -13.92270    2.69211
      H1     8.61343  -14.57623    2.82283
       H    12.67289  -11.21912    3.40366
       O    11.89950  -10.62937    3.38947
      H1    11.69921  -10.53084    4.30139
       H     9.36820   -9.83058    0.48271
       O     9.40409  -10.79991    0.52041
      H1     8.73161  -11.08018   -0.02968
       H    17.33692   -8.29552    3.00331
       O    16.64615   -8.98187    3.12634
      H1    16.37109   -8.61224    3.98273
       H    14.49432  -18.43870   -1.63201
       O    15.00571  -17.63748   -1.72374
      H1    15.50975  -17.37242   -0.92397
       H    12.91008   -6.22981    0.57828
       O    13.26713   -5.39936    0.30262
      H1    14.17877   -5.39178    0.68681
       H    14.01605  -12.94345   -0.72795
       O    13.32434  -13.17890   -1.38059
      H1    13.42958  -14.09862   -1.60621
       H    14.22130   -8.15479    7.78636
       O    14.15631   -9.04965    7.41561
      H1    14.03491   -9.73436    8.09025
       H    10.61744   -6.97687    3.73484
       O     9.79452   -6.74146    3.24873
      H1     9.95189   -7.20198    2.38694
       H     7.39191  -14.46247    0.18735
       O     6.48147  -14.04155   -0.02217
      H1     6.65805  -13.21874   -0.51057
       H    14.61522   -8.03643   -1.88917
       O    15.32536   -7.61380   -2.39501
      H1    16.09570   -7.49065   -1.87069
       H     7.51811   -9.99854    5.51711
       O     7.13539  -10.82355    5.18573
      H1     7.72622  -11.31241    4.63053
       H     9.26925  -11.13793    2.45041
       O     9.04478  -11.47701    3.28372
      H1     9.94504  -11.64209    3.52713
       H    16.82349  -14.99211   -3.53344
       O    17.12741  -14.12695   -3.30861
      H1    16.39586  -13.63205   -3.62325
       H    19.59880  -11.66025    5.98903
       O    18.91580  -11.08666    6.34720
      H1    18.13260  -11.28878    5.79985
       H    15.07181  -13.02693    7.36811
       O    14.77781  -13.85632    6.97455
      H1    15.04152  -14.59258    7.60055
       H    11.97393  -14.39266    8.89834
       O    11.82200  -14.12139    8.01095
      H1    12.69787  -14.03592    7.61201
       H    11.62159   -6.88115    5.78449
       O    11.94185   -7.40920    5.00344
      H1    12.72828   -7.09086    4.55526
       H    17.47703  -16.56478    4.94588
       O    16.84430  -16.16726    4.23737
      H1    16.59822  -15.27360    4.57131
       H    13.13257  -12.54850   -4.62705
       O    13.82566  -13.20002   -4.50798
      H1    13.68511  -13.43099   -3.55327
       H    11.83600  -16.03966   -1.22426
       O    11.29827  -16.60486   -0.60516
      H1    10.50415  -16.03757   -0.50707
       H    15.02063  -19.04064    5.11013
       O    15.40166  -19.45742    5.94481
      H1    14.66927  -19.83267    6.46707
       H    17.40186  -16.77181    0.52381
       O    16.57083  -16.33768    0.31712
      H1    16.23879  -16.16673    1.24687
       H    12.28851   -8.29038    0.85676
       O    12.21768   -7.94936    1.77832
      H1    11.97215   -8.71791    2.26917
       H    17.03383  -16.44084    7.75794
       O    17.89075  -16.86439    7.67473
      H1    17.76479  -17.76998    7.39219
       H     9.98808  -18.70905    4.76143
       O     9.18731  -18.16319    4.71790
      H1     9.23274  -17.74854    5.57436
       H    14.04648  -17.75806    3.16098
       O    14.80837  -17.98205    3.80325
      H1    15.36966  -17.23874    3.93304
       H    12.13956  -17.38118    1.51165
       O    12.33447  -17.54375    2.41030
      H1    11.46755  -17.52112    2.82756
       H    15.76643   -8.67111    6.24426
       O    16.13001   -8.07361    5.59812
      H1    17.07109   -8.16109    5.83093
       H    18.11468   -6.99810   -1.19139
       O    17.29176   -7.08204   -0.61690
      H1    17.35890   -7.95405   -0.14867
       H    16.53179  -15.25902    9.41782
       O    15.73352  -15.46311    8.99801
      H1    15.21574  -16.10234    9.46749
       H    10.74835  -12.21148    0.20247
       O    11.02946  -13.11071   -0.01182
      H1    11.93242  -13.05961   -0.40431
       H     9.72868  -18.11000    1.97456
       O     9.33667  -17.29848    2.27769
      H1     9.20438  -17.33683    3.25329
       H     8.62818  -16.70756    7.43443
       O     9.53547  -16.76127    7.23862
      H1     9.76041  -15.83009    6.99064
       H    12.89253  -11.35462   -2.22656
       O    12.50907  -10.46622   -2.44733
      H1    11.61109  -10.58449   -2.78982
       H    11.51100  -12.31386    8.44515
       O    11.29065  -11.40500    8.48906
      H1    11.39117  -10.94489    7.66770
       H     9.30718   -9.44962    9.30762
       O     9.00093   -9.94586    8.53757
      H1     9.63376  -10.65788    8.41513

