171
frame 3 | Written by MDAnalysis XYZWriter (release 2.4.3)
       H     8.76306    8.58951  -12.30413
       O     8.92714    9.27467  -11.62289
      H1     9.04089    8.82829  -10.70612
       H    11.98768   10.53509  -15.76994
       O    11.49501   11.38871  -15.85802
      H1    12.20035   11.98255  -15.47533
       H    12.75195   15.13330  -16.82979
       O    13.02948   16.00807  -17.05120
      H1    13.90302   15.74482  -17.41709
       H    15.88852   14.11072  -16.73303
       O    15.37612   14.32311  -15.97121
      H1    14.90049   13.50316  -15.69817
       H     9.56730   14.60248  -13.43495
       O     9.21912   15.18269  -14.11034
      H1     8.82674   14.58014  -14.78384
       H     7.92983   15.36108  -12.58202
       O     7.07872   15.14749  -12.15115
      H1     6.89929   15.89379  -11.54190
       H    13.43010   12.47778  -11.43358
       O    13.95217   12.95101  -12.12969
      H1    13.68811   13.86858  -12.05297
       H    16.20339   12.53283  -12.16175
       O    17.12261   12.71688  -12.36880
      H1    17.61788   12.62249  -11.55025
       H    15.90893   10.61430   -9.88021
       O    15.81749    9.83970  -10.46374
      H1    14.89685    9.70799  -10.35690
       H    16.06502   12.99611   -9.40941
       O    15.82358   12.20661   -8.93616
      H1    16.57968   11.97078   -8.31137
       H    12.92317   15.98018   -8.76429
       O    13.36553   15.68466   -9.54996
      H1    12.98151   15.92360  -10.39453
       H    13.17978    8.48004  -15.34886
       O    13.28550    9.26442  -15.88790
      H1    13.16382    8.99936  -16.78422
       H    12.53944    5.37919  -14.12296
       O    12.86792    4.65809  -13.51630
      H1    12.59076    4.90490  -12.63699
       H    10.57364   13.49965  -11.26917
       O    10.26027   13.64347  -12.14970
      H1    10.10087   12.76952  -12.56083
       H    11.80124   10.61626  -11.59059
       O    11.94297   11.20904  -10.77725
      H1    11.35039   10.85612  -10.11739
       H     3.92931    8.71946  -11.38489
       O     4.59328    8.25010  -10.89049
      H1     5.28616    8.95991  -10.87026
       H     8.44555    7.95135  -17.30950
       O     8.48461    8.78490  -16.90541
      H1     9.06069    9.33514  -17.41286
       H    11.65470    6.17705  -16.38118
       O    12.32702    6.40129  -15.79363
      H1    13.18747    6.06757  -16.03868
       H    12.68734    9.69605  -13.20056
       O    11.69945    9.77478  -13.10240
      H1    11.47687    8.94650  -12.59558
       H     5.35606   10.03083  -15.25583
       O     4.82679    9.55700  -15.86947
      H1     5.12553    9.87294  -16.74475
       H     7.92359   13.09206  -15.94745
       O     7.77985   13.98885  -16.20667
      H1     6.79684   14.05650  -16.27884
       H     9.63266    5.02104  -13.02919
       O     9.32018    5.69814  -12.50271
      H1     9.21936    6.39063  -13.13945
       H     9.47102    3.71229  -15.40626
       O     9.97060    3.29806  -14.70458
      H1     9.58591    2.43991  -14.61126
       H    14.80212   10.16498  -15.65076
       O    15.51667   10.78957  -15.45841
      H1    16.04590   10.76276  -16.30031
       H    10.06613    8.02194   -8.64328
       O    10.05157    7.65748   -9.54444
      H1     9.44393    6.87896   -9.47005
       H    14.30058   12.11310  -15.05363
       O    13.63565   12.72779  -14.86224
      H1    13.76901   12.85752  -13.91825
       H    10.68507   11.27542   -8.17073
       O    10.65636   10.37409   -8.53756
      H1     9.79910    9.97046   -8.35566
       H     9.63298   12.68384   -6.95703
       O    10.26316   13.00912   -7.60032
      H1    11.06787   13.26985   -7.06489
       H     8.44017    6.43574  -19.24721
       O     8.82673    6.09319  -18.40822
      H1     9.75943    6.00791  -18.56186
       H     6.49747   13.92257  -11.10317
       O     6.05776   13.17297  -10.65930
      H1     5.07976   13.35534  -10.68498
       H    14.77684   15.55175  -14.38822
       O    14.27057   16.34555  -14.23458
      H1    13.88155   16.32568  -15.07657
       H     9.07684   10.29720  -19.22604
       O     9.94453   10.26388  -18.71819
      H1    10.28933   11.16519  -18.58561
       H    15.04887    4.80949  -16.51649
       O    14.85482    5.75343  -16.53852
      H1    15.00625    5.90864  -17.43745
       H     8.57999    2.84825  -10.28625
       O     9.06040    3.08804  -11.10266
      H1     8.57647    3.83877  -11.39060
       H     8.28923    5.14329  -17.09630
       O     7.86555    4.78465  -16.31167
      H1     7.51526    5.59406  -15.92410
       H     9.29288    8.19001   -6.32621
       O     8.75203    8.59575   -7.03028
      H1     8.19617    7.87499   -7.38440
       H    13.93470    8.45656  -11.97027
       O    14.25352    8.83197  -12.81562
      H1    15.17546    9.10464  -12.76091
       H    10.11340   11.24116  -14.05779
       O     9.33828   11.49047  -13.56001
      H1     9.32189   10.89917  -12.83676
       H    10.91036    5.92527  -10.90258
       O    11.79446    5.54220  -10.98419
      H1    12.40349    6.25149  -10.64404
       H     8.85797    8.20674  -15.12154
       O     9.40886    7.96817  -14.36327
      H1    10.05621    8.70409  -14.26296
       H     7.28551   10.30253  -11.21441
       O     6.34978   10.51207  -11.10878
      H1     6.32486   11.42288  -10.84273
       H    14.14285    3.56535  -14.19566
       O    14.88940    3.16259  -14.64509
      H1    14.73473    3.03457  -15.57224
       H    16.91754    8.65761   -9.81393
       O    17.51692    7.90373   -9.76069
      H1    17.56640    7.52502  -10.65861
       H    13.01208    9.76469   -6.65450
       O    13.89357    9.51578   -6.40181
      H1    13.72452    8.63980   -5.91178
       H     6.08299   11.31715  -13.96136
       O     5.29899   11.00790  -13.59966
      H1     5.53554   10.65981  -12.74113
       H    15.98047    6.92419  -15.24619
       O    16.70139    6.87041  -14.60317
      H1    16.69601    7.70037  -14.06184
       H     5.26598    7.63725  -15.65939
       O     5.41900    6.77165  -15.28254
      H1     5.82112    7.03088  -14.44304
       H     6.88663    6.50820  -12.24639
       O     6.31697    7.18938  -12.67145
      H1     5.71337    7.55994  -11.97268
       H    11.75449   15.09776  -12.49601
       O    12.62536   15.38696  -12.30949
      H1    13.02796   15.54701  -13.18832
       H    11.85745    9.12479  -18.60825
       O    12.67207    8.54788  -18.54153
      H1    12.37094    7.65673  -18.32874
       H    10.74090   13.13917  -18.38445
       O    11.51699   12.58808  -18.31849
      H1    11.67729   12.34143  -17.36168
       H    15.39117    6.08920  -12.78190
       O    15.38862    5.37750  -12.12104
      H1    14.52030    4.95301  -12.28287
       H    10.89303    4.21918   -9.20932
       O    11.48560    3.55795   -8.83093
      H1    11.69715    2.97172   -9.55861
       H    12.83568    7.91863   -9.45331
       O    13.49297    7.61947  -10.06925
      H1    14.16437    7.21114   -9.53321
       H     8.00195   11.25603  -14.80100
       O     7.30347   11.31865  -15.42928
      H1     7.30505   10.53536  -16.01230
       H    17.05701   10.48863  -13.07066
       O    16.91900    9.58630  -13.42290
      H1    16.62387    9.80025  -14.30177
       H    16.21587    6.62633   -8.77816
       O    15.43559    6.07993   -8.69852
      H1    15.61239    5.28687   -9.19945

