171
frame 6 | Written by MDAnalysis XYZWriter (release 2.4.3)
       H   -17.20036   11.53995   -9.45491
       O   -17.26918   10.68375   -8.93050
      H1   -18.21051   10.61681   -8.71686
       H    -6.82795    5.44768   -6.95796
       O    -6.34907    4.62725   -6.89301
      H1    -6.90443    4.02356   -6.42505
       H   -11.03873    9.14874  -11.54664
       O   -10.29297    8.97508  -12.16645
      H1   -10.51524    8.04880  -12.36504
       H   -10.51911    7.00083   -3.98152
       O    -9.64642    7.01624   -4.25208
      H1    -9.20867    7.14712   -3.46787
       H    -8.02429   11.55576  -13.26719
       O    -7.94740   12.45157  -13.60179
      H1    -8.41263   12.91620  -12.91485
       H    -7.00863    7.25724   -8.19030
       O    -7.67667    6.91341   -7.54659
      H1    -8.48503    6.50460   -7.92797
       H   -12.84287    2.40057   -6.70444
       O   -12.33891    1.63992   -6.25647
      H1   -11.61564    1.53441   -6.90356
       H    -9.94197    5.21203   -7.30349
       O    -9.96739    5.59191   -8.19626
      H1    -9.66499    4.91284   -8.82102
       H   -13.05782   14.00837  -10.35709
       O   -13.32951   13.70830   -9.44040
      H1   -14.11977   13.14534   -9.55363
       H   -10.56924    4.15745   -5.03838
       O    -9.85276    4.52581   -5.57812
      H1    -9.72885    5.40662   -5.21817
       H   -13.95320   11.63717  -12.37678
       O   -13.87975   11.39453  -11.44163
      H1   -14.63740   11.87045  -10.94339
       H    -6.68295    9.48777   -6.74736
       O    -7.04883    8.97474   -6.00050
      H1    -7.44800    8.20680   -6.43813
       H    -9.70664   10.56547   -9.00769
       O    -9.54636    9.60978   -8.91705
      H1    -9.70161    9.31917   -7.98187
       H   -16.95440    4.37379   -9.67725
       O   -16.64688    3.46066   -9.74638
      H1   -17.11239    2.89906   -9.07157
       H   -14.83783    1.89202  -11.39516
       O   -14.37675    2.36188  -10.64057
      H1   -15.02288    2.81483  -10.05589
       H   -15.45996    8.21358   -9.45120
       O   -15.21443    8.46543  -10.34531
      H1   -14.87140    9.37673  -10.27322
       H   -12.56295    1.40901  -10.67244
       O   -11.98666    0.71292  -10.24499
      H1   -11.35933    0.47424  -10.94609
       H   -12.98535   13.19641   -4.94270
       O   -13.18885   13.80610   -5.66219
      H1   -12.35073   13.83364   -6.19252
       H   -11.52390   10.21432   -4.79570
       O   -12.30489    9.86363   -5.30282
      H1   -12.84181   10.66391   -5.33291
       H   -11.27332    9.93850   -9.51600
       O   -12.08542    9.63502   -9.92047
      H1   -12.38560   10.45789  -10.42761
       H   -10.59780    6.27437  -12.57506
       O   -10.36743    6.55687  -13.47126
      H1    -9.46855    6.18504  -13.62355
       H   -12.26105    5.62486  -10.37185
       O   -12.03215    5.40126  -11.29175
      H1   -12.89982    5.28301  -11.73962
       H    -7.63672    2.91488   -9.28354
       O    -6.66887    3.10580   -9.11579
      H1    -6.54505    3.76031   -8.37155
       H   -17.69138   11.49643  -12.93919
       O   -17.98739   10.63107  -13.22355
      H1   -17.92064   10.12295  -12.36499
       H   -15.98476    4.27707   -4.66645
       O   -15.30282    3.63038   -4.84387
      H1   -14.90913    3.44924   -3.97061
       H   -16.80227    6.73721  -13.45782
       O   -16.10226    6.39456  -12.87477
      H1   -15.36905    7.02058  -12.85218
       H    -6.30966   10.49188   -8.57688
       O    -5.72742   10.83551   -7.84201
      H1    -4.94801   11.31285   -8.28055
       H   -15.22503    6.83860   -7.20990
       O   -15.90016    7.34182   -7.71883
      H1   -16.33120    6.75489   -8.33839
       H   -12.90466   12.93905  -14.04021
       O   -13.76376   12.48371  -13.92338
      H1   -14.18173   12.40809  -14.78066
       H   -13.16783    6.64407   -5.70893
       O   -13.64798    6.40029   -6.50403
      H1   -13.23770    6.71108   -7.33923
       H    -7.35714   10.12075  -11.86930
       O    -7.84143    9.92802  -12.64936
      H1    -8.72056    9.48720  -12.38874
       H   -11.05971    3.59624  -11.73541
       O   -10.29889    3.09538  -12.08002
      H1    -9.52077    3.69635  -12.09221
       H   -11.77175    9.58902  -13.81192
       O   -11.83974    9.75879  -14.77785
      H1   -11.66683    8.90538  -15.23704
       H   -14.49508    3.53615   -6.25161
       O   -13.95209    3.66959   -7.05380
      H1   -13.80780    4.63990   -7.11150
       H   -16.35467   13.14529  -10.96417
       O   -15.98208   12.82221  -10.11894
      H1   -16.44417   13.18378   -9.30978
       H    -9.98674    2.74167  -10.12269
       O    -9.42459    2.62274   -9.33463
      H1    -9.91981    1.88382   -8.88918
       H   -12.31705    7.84996   -9.44476
       O   -12.40134    7.08185   -8.86701
      H1   -11.51592    6.79890   -8.64749
       H   -18.53765    7.93058   -6.68651
       O   -17.94554    8.12711   -5.96094
      H1   -17.06406    8.04717   -6.34677
       H   -17.41461    3.58351  -11.29449
       O   -17.78700    3.73505  -12.22913
      H1   -18.63054    3.18458  -12.32635
       H   -17.06516    6.35957  -10.98480
       O   -17.24050    6.13876  -10.08311
      H1   -18.16511    5.90495   -9.90585
       H   -15.18247    4.78020  -13.07435
       O   -14.37757    4.22173  -13.13370
      H1   -14.59979    3.57420  -12.47752
       H    -9.46746   12.80949   -9.86968
       O    -9.61449   12.37325   -9.03194
      H1   -10.06172   13.08634   -8.54853
       H   -12.08465   13.80531   -8.13651
       O   -11.23794   13.99421   -7.67757
      H1   -11.00952   14.90076   -7.84680
       H    -8.69944    9.53306  -14.33395
       O    -8.62119    9.20530  -15.21866
      H1    -9.37218    8.62491  -15.18072
       H    -5.14868    7.33423   -9.61679
       O    -5.64325    7.95438   -9.00982
      H1    -4.87925    8.45508   -8.67052
       H   -11.46712    8.90082   -6.33901
       O   -10.86856    8.19926   -6.68177
      H1   -10.66857    7.68091   -5.90522
       H    -6.81111   12.27769   -7.23741
       O    -7.50904   12.84339   -6.99211
      H1    -8.14258   12.84429   -7.78319
       H   -15.57904   11.96898   -6.10031
       O   -15.73553   12.89821   -5.93398
      H1   -14.88978   13.32786   -6.04564
       H    -6.19546    9.35772   -9.67443
       O    -6.81803   10.04206  -10.04704
      H1    -7.65537    9.74210   -9.66268
       H   -18.00109    9.58921  -10.08267
       O   -18.63490    9.28433  -10.85156
      H1   -18.63726    8.31713  -10.74781
       H   -13.09746    6.99429  -14.31010
       O   -12.63539    6.66452  -15.05764
      H1   -11.76110    6.62364  -14.66223
       H   -14.29182    8.61095  -12.10123
       O   -14.16559    8.39480  -13.06754
      H1   -14.67267    9.01347  -13.60467
       H    -9.33350   11.95879  -14.83874
       O   -10.25174   11.94605  -15.15834
      H1   -10.69367   11.08261  -15.11730
       H    -9.35320   10.07496   -3.38121
       O   -10.32961   10.11168   -3.23843
      H1   -10.41161    9.94591   -2.27528
       H    -7.61269    4.57313  -14.51830
       O    -7.80096    5.19488  -13.78578
      H1    -7.11729    5.89632  -14.04860
       H   -12.63904    8.10629   -4.43573
       O   -12.42930    7.24682   -4.12847
      H1   -12.95158    7.12309   -3.33487
       H   -14.81305    9.66837   -7.08567
       O   -15.17220   10.48374   -6.74926
      H1   -15.81498   10.69016   -7.45897

