171
frame 7 | Written by MDAnalysis XYZWriter (release 2.4.3)
       H    17.30906  -13.72428   -6.57272
       O    16.90975  -14.19385   -7.31527
      H1    16.85165  -13.54705   -8.05959
       H     6.89791   -7.98032  -12.67229
       O     6.52469   -8.86806  -12.60347
      H1     7.22707   -9.47098  -12.83459
       H    17.06939  -19.74138  -12.29584
       O    16.74704  -18.83521  -12.27944
      H1    15.95526  -18.81448  -11.76836
       H    17.28889  -10.73668  -16.21686
       O    18.25703  -10.62470  -16.07398
      H1    18.26987   -9.79609  -15.52371
       H    10.82924   -9.41084  -11.52848
       O    10.88495   -8.47792  -11.33913
      H1    11.14398   -8.14492  -12.21054
       H    11.86225   -7.86393  -10.11044
       O    12.52101   -7.59132   -9.47898
      H1    13.31823   -8.16771   -9.57655
       H    11.18066  -19.47455  -17.14221
       O    10.62207  -19.32582  -16.30249
      H1    10.40322  -18.36885  -16.30928
       H    15.85767  -13.50759  -15.72154
       O    15.37430  -14.11811  -15.15390
      H1    16.06699  -14.76768  -14.96235
       H    16.89439   -5.49193  -11.62089
       O    16.47306   -6.01115  -12.27721
      H1    16.34378   -6.91256  -11.93639
       H     9.72538  -13.61819  -18.53442
       O     9.55777  -12.93503  -17.79477
      H1     8.64220  -12.78161  -17.96977
       H    12.66900  -17.39605  -15.06912
       O    13.11158  -17.75074  -15.81358
      H1    13.46867  -18.64363  -15.63737
       H    18.70930  -12.22497  -15.72311
       O    18.97404  -13.08759  -15.38146
      H1    19.34245  -13.54812  -16.12592
       H     9.31341  -10.11113  -14.01814
       O     9.77565   -9.75841  -14.82074
      H1     9.14156   -9.26274  -15.29218
       H    11.76939  -12.80558   -9.34320
       O    10.89285  -12.66647   -9.76885
      H1    10.35485  -13.44842   -9.79614
       H    14.22080  -11.77002   -7.34628
       O    14.57833  -11.07743   -6.72567
      H1    15.53319  -11.11276   -6.90226
       H    17.07940  -17.34082  -13.84761
       O    16.93112  -16.41140  -14.04320
      H1    17.26200  -15.80769  -13.38667
       H    12.51254  -19.81305   -8.31969
       O    12.97427  -19.34060   -9.03794
      H1    12.57205  -18.46506   -9.09767
       H    13.90875  -13.07133  -11.29496
       O    14.64047  -13.51253  -10.82684
      H1    14.80387  -14.24089  -11.40842
       H    12.80508   -9.53129  -17.39284
       O    13.42592   -9.24508  -18.16458
      H1    13.19917   -8.32575  -18.19856
       H    13.83472  -12.19653  -19.92654
       O    14.34152  -11.66022  -19.24372
      H1    13.77328  -10.85561  -19.13677
       H    10.68322  -13.22112  -16.56614
       O    11.46656  -13.33563  -15.97896
      H1    11.88505  -14.16909  -16.23246
       H    13.04808  -18.78473  -11.02735
       O    13.44972  -18.35691  -11.81329
      H1    12.86220  -18.58722  -12.57163
       H     9.23411  -11.39277   -7.48315
       O    10.05577  -11.76457   -7.08711
      H1    10.61639  -11.84513   -7.86268
       H    18.70987   -8.86742  -13.81430
       O    18.60775   -8.26503  -14.55038
      H1    17.65993   -8.02827  -14.60515
       H    12.94606  -16.09284   -9.01627
       O    12.07199  -16.56219   -9.08029
      H1    11.54876  -16.21839   -8.37154
       H    14.09911   -9.94312   -8.34799
       O    14.53524   -9.16179   -8.85071
      H1    14.80055   -8.63847   -8.06406
       H    14.44188  -13.74182   -5.33971
       O    14.48375  -14.21546   -6.18318
      H1    15.33334  -14.30428   -6.57657
       H     9.16765  -15.12680  -10.95042
       O     8.54279  -14.50874  -10.57571
      H1     8.10157  -14.96052   -9.85989
       H    13.56798  -13.42126   -7.52315
       O    13.39351  -13.00876   -8.44030
      H1    14.09235  -13.30408   -9.06629
       H    13.91294  -15.55506  -18.82089
       O    13.85858  -15.82585  -19.73020
      H1    14.78135  -15.88370  -20.03275
       H    10.56162  -11.63243  -11.23960
       O    10.60202  -11.17016  -12.08242
      H1    11.28789  -11.56745  -12.62563
       H    14.84402   -9.78449  -14.73040
       O    14.59461  -10.67012  -14.41656
      H1    13.83069  -10.78241  -15.03001
       H    12.52194  -12.82408  -14.07137
       O    13.08841  -13.10724  -13.33375
      H1    13.90217  -13.37668  -13.73114
       H    14.98505  -15.95153  -10.16154
       O    14.60804  -16.14595   -9.30671
      H1    15.19718  -16.66645   -8.76767
       H    15.73608   -9.75284  -11.88076
       O    15.59166   -8.86265  -11.50535
      H1    15.51055   -9.04116  -10.51271
       H    13.00833   -7.35366  -13.07664
       O    12.35596   -7.88733  -13.63543
      H1    12.52233   -8.82645  -13.51295
       H    11.20828  -16.13056  -16.38346
       O    10.31082  -16.48476  -16.25646
      H1     9.91554  -16.63700  -17.18863
       H     9.74777  -18.90023   -9.42334
       O     9.99413  -18.72884  -10.39041
      H1    10.29919  -19.57003  -10.75525
       H    19.72526  -10.67842  -12.83867
       O    18.88102  -10.20573  -12.58801
      H1    18.11293  -10.73750  -12.81226
       H    10.18138   -6.54371  -13.92148
       O     9.46878   -6.17070  -14.51110
      H1     8.62325   -6.28150  -14.03456
       H    14.21912   -6.32318  -11.68042
       O    13.34511   -5.99803  -12.07456
      H1    12.67379   -6.04376  -11.38754
       H    15.08510  -11.21416  -16.07089
       O    15.64040  -11.80061  -16.60947
      H1    15.31151  -11.77175  -17.46772
       H    16.94784  -11.41445   -9.36785
       O    16.56523  -12.29589   -9.22921
      H1    16.04541  -12.50235  -10.02450
       H    16.50408   -7.51978  -16.26096
       O    16.12223   -7.72254  -15.39138
      H1    15.61633   -6.93069  -15.11818
       H    11.74346  -16.18775  -13.09873
       O    12.45740  -15.88720  -13.66482
      H1    12.42796  -14.94701  -13.44371
       H     7.55888  -14.65960  -13.62027
       O     7.21562  -14.14816  -12.89079
      H1     7.72510  -14.40061  -12.10555
       H    18.55415  -13.51226  -12.28014
       O    18.16875  -13.94776  -13.04361
      H1    18.39777  -13.41766  -13.81805
       H    11.53049   -8.50678   -8.00418
       O    10.61821   -8.81384   -7.75920
      H1    10.63623   -9.23299   -6.83778
       H     8.28149  -18.48410  -13.17390
       O     8.13070  -17.62482  -12.75871
      H1     7.51641  -17.76566  -12.04491
       H    11.55444  -10.12355  -15.48901
       O    12.36744  -10.53196  -15.93118
      H1    12.10967  -11.50817  -16.17357
       H    15.58682  -16.15279  -12.74246
       O    15.16951  -16.06889  -11.89381
      H1    14.51889  -16.80479  -11.85654
       H     8.24114  -11.48979  -12.72859
       O     7.78963  -11.15084  -13.47365
      H1     7.96566  -11.73583  -14.17237
       H    14.13271  -14.75228  -16.49167
       O    13.36402  -15.25135  -16.85479
      H1    13.50827  -16.17555  -16.62955
       H    16.84925  -12.66883  -12.97585
       O    16.60365  -11.70225  -12.94236
      H1    15.84362  -11.62350  -13.50405
       H     8.66388  -15.73546  -15.53356
       O     7.90991  -15.61982  -14.91835
      H1     7.86748  -16.33658  -14.28474
       H    18.24324  -17.31758  -10.69585
       O    18.47060  -17.41338   -9.72064
      H1    18.06825  -18.26526   -9.43249
       H    10.65307  -16.81174  -10.81376
       O    10.29529  -16.33828  -11.58332
      H1     9.65069  -16.94395  -11.94031

