171
frame 8 | Written by MDAnalysis XYZWriter (release 2.4.3)
       H     4.44517   12.33019   18.87569
       O     4.04441   12.77820   18.10894
      H1     4.66486   12.75704   17.36740
       H    -1.97442    8.39375    8.34900
       O    -2.24027    9.20146    8.72891
      H1    -2.59764    9.01105    9.62073
       H     3.08708   10.87012   18.34759
       O     3.19658    9.94156   18.18078
      H1     4.13522    9.72845   18.06626
       H     5.42105   12.88482   14.85885
       O     5.93550   12.43518   15.57636
      H1     6.00067   11.53080   15.19348
       H     2.65189   16.25299   15.67991
       O     2.46126   16.46463   16.63386
      H1     3.08658   16.04132   17.18481
       H     5.98936    5.61193   17.67833
       O     5.17688    6.11855   17.74988
      H1     4.97483    6.40706   16.86201
       H     3.52111   14.61644   13.67330
       O     3.72511   13.66759   13.55447
      H1     4.14131   13.51574   12.67665
       H     3.56766    6.66399   15.09134
       O     4.34676    7.20184   15.33425
      H1     3.92476    8.09765   15.51023
       H     4.45045   17.64509   12.05776
       O     3.80082   18.35496   11.81851
      H1     3.32985   17.88200   11.13498
       H     0.19437   10.28440   20.05065
       O     0.08823   11.24957   19.92809
      H1    -0.07428   11.25925   18.96077
       H     6.73572   17.66275   12.91389
       O     6.18070   16.89619   12.96159
      H1     6.11645   16.57088   12.02531
       H     7.35946   15.98477   13.91148
       O     8.02532   15.80798   14.55377
      H1     8.29574   14.85621   14.48445
       H     2.85943    5.11267   13.73873
       O     3.67888    4.60743   13.87268
      H1     3.55330    4.04478   14.70448
       H    -3.52806   12.82530   18.86203
       O    -3.23661   12.51497   17.97931
      H1    -2.90392   11.62590   18.19596
       H    -0.44205    7.64986   10.28838
       O    -0.53127    6.70504   10.54960
      H1    -0.97792    6.82184   11.40870
       H    -0.15935   15.09236   18.84323
       O    -0.07395   15.55536   18.02090
      H1     0.85722   15.72060   17.90684
       H     3.72546   14.31226   19.21554
       O     3.43210   15.19702   19.11327
      H1     3.21575   15.56929   19.96107
       H     3.74602   12.07974    6.95433
       O     2.84761   12.16990    7.36128
      H1     3.00308   11.93558    8.28378
       H    -0.63671   10.76504    9.13405
       O    -0.45627   11.74079    9.17133
      H1    -0.97087   12.10503    8.46353
       H     4.78885    6.98724   13.53254
       O     5.11700    7.01290   12.63754
      H1     6.05002    7.26973   12.73464
       H     1.14437   14.30228    6.13476
       O     1.31567   14.59471    7.09463
      H1     1.95867   13.86211    7.27843
       H    -0.96350   11.00156   12.44640
       O    -1.12200   10.08120   12.38876
      H1    -1.53281    9.97335   13.27577
       H     9.54094   13.03486   15.27523
       O     8.72351   13.29476   14.88905
      H1     8.00819   12.91321   15.40779
       H    -3.92633   11.18170   11.18433
       O    -3.83997   10.30556   11.59224
      H1    -2.95722   10.32500   12.00668
       H     2.88670   10.20128   15.12006
       O     2.65895    9.43313   15.64857
      H1     2.84665    9.73663   16.53425
       H     5.57422   13.76869   10.61934
       O     5.30017   12.84268   10.84163
      H1     4.46711   12.74354   10.31845
       H    -2.00130   16.44245   11.85022
       O    -1.73921   15.84725   11.15017
      H1    -2.50453   15.98106   10.54312
       H    -0.85239   14.36433   16.65450
       O    -1.27681   13.57717   16.18162
      H1    -1.84421   13.24608   16.88787
       H     0.65116   17.38254   13.61183
       O    -0.11870   17.89040   13.86814
      H1    -0.78161   17.19595   13.94777
       H    -1.39706   14.59767   14.61660
       O    -1.41116   15.25144   13.91856
      H1    -1.09311   14.73384   13.19149
       H     0.05364   15.42133   11.07272
       O     0.86589   15.03720   11.51046
      H1     0.67045   14.07380   11.68131
       H     2.20302   15.73658   10.34599
       O     2.90818   16.35152   10.12252
      H1     2.78883   16.50234    9.20475
       H     6.33496   11.56732   10.55212
       O     6.94343   10.84643   10.57236
      H1     7.71301   11.22188   10.98935
       H    -2.09476    6.38301   18.09788
       O    -1.53862    6.84330   17.49706
      H1    -0.77450    7.16653   17.99541
       H    -1.73968    5.07110   15.01520
       O    -2.23882    5.94802   14.97898
      H1    -2.02406    6.44659   15.76762
       H     1.35548    8.30369    9.32882
       O     0.88616    8.84666    9.98748
      H1     1.63719    9.09194   10.61480
       H     0.80407    7.10881   16.12401
       O     0.68811    7.63172   15.29722
      H1     1.35125    8.27612   15.34071
       H     1.05842   12.06851   12.24107
       O     0.29123   12.54586   11.90469
      H1     0.09388   12.29054   10.95055
       H     9.06618   12.48400   12.99143
       O     9.24230   12.00422   12.20891
      H1     9.92363   11.40996   12.35783
       H    -3.14357   11.21100   15.04536
       O    -2.42073   10.57778   14.97915
      H1    -1.78597   10.85333   15.64208
       H     1.28486    6.03125   12.41966
       O     1.85413    6.30000   13.09049
      H1     1.36985    6.70311   13.82637
       H    -2.00727    9.28439   18.67151
       O    -2.78725    9.73913   19.05283
      H1    -3.51260    9.15132   18.91072
       H     6.10645   15.93699    9.90728
       O     5.44598   15.62817   10.59329
      H1     4.59736   15.84621   10.31743
       H     2.46011    8.53473   12.16806
       O     2.90347    9.37616   11.99261
      H1     3.73133    9.21966   12.42660
       H    -4.29752   13.54876   14.71786
       O    -4.39238   12.58473   14.80584
      H1    -4.79780   12.43830   15.63546
       H     3.15424    7.53346    8.83157
       O     2.62814    7.66133    8.00514
      H1     2.72319    8.50063    7.56657
       H     3.07275    5.89266   10.34113
       O     3.70096    6.61501   10.35422
      H1     3.97486    6.77267   11.26104
       H     0.27819   10.39948   16.17331
       O    -0.37801   10.96084   16.65055
      H1    -0.47533   11.78974   16.21641
       H     5.49093    7.87971   18.10351
       O     5.63779    8.82181   17.93571
      H1     6.48124    9.04655   18.37136
       H    -1.84818    6.84872   13.43223
       O    -1.94866    7.26549   12.58212
      H1    -1.74146    8.18202   12.80597
       H     5.70504    9.85386   13.59730
       O     5.31088   10.33745   12.84119
      H1     6.04849   10.53709   12.22710
       H    -3.19059   15.16860   14.05779
       O    -4.02650   15.21810   14.58274
      H1    -4.62802   15.54860   13.94298
       H     2.67192   10.77773   13.14671
       O     2.30620   11.38337   13.78334
      H1     2.88895   12.17557   13.67293
       H     3.02256   16.99107   13.23969
       O     2.62192   16.27794   13.74781
      H1     2.09562   15.79301   13.10706
       H     1.87368   11.65644    9.80690
       O     2.81060   11.58923    9.83586
      H1     3.12609   10.91756   10.43139
       H    -4.99974   10.18769   15.56639
       O    -4.64742    9.27289   15.72621
      H1    -3.73045    9.44431   15.52389
       H     6.90290    8.34968   14.75415
       O     6.42907    9.10748   15.09329
      H1     5.97566    8.73765   15.88462

