171
frame 8 | Written by MDAnalysis XYZWriter (release 2.4.3)
       H    14.16877  -13.33383    3.44933
       O    13.54433  -12.90718    2.88452
      H1    12.82759  -13.54210    2.61047
       H    16.85764  -14.54294   -0.23496
       O    16.98661  -13.69347   -0.63518
      H1    16.88193  -13.87817   -1.61232
       H    12.43083   -2.47656   -0.44819
       O    12.98970   -2.09589   -1.13101
      H1    13.48990   -2.84403   -1.55686
       H    18.60604  -13.11651   -0.31070
       O    19.46277  -12.66588   -0.34186
      H1    19.63223  -12.32945    0.51930
       H    13.59276   -7.08356    2.43186
       O    14.03306   -6.46639    3.02199
      H1    14.96232   -6.19331    2.64143
       H    13.91331   -9.00387   -0.20631
       O    13.22956   -8.50092   -0.80707
      H1    12.76098   -9.20043   -1.22423
       H    17.86328  -10.20924   -0.40261
       O    17.65978   -9.66844    0.37427
      H1    16.70049   -9.73245    0.55670
       H    18.36248   -5.68976   -4.20216
       O    19.19939   -6.13787   -3.94498
      H1    19.40343   -6.02561   -3.03862
       H    14.41239  -12.30780    1.43363
       O    14.93588  -12.08922    0.60899
      H1    15.70475  -12.69211    0.81470
       H    14.14777   -4.79506   -3.20172
       O    14.27704   -4.31282   -2.35194
      H1    14.02013   -4.93320   -1.63667
       H    14.12583   -6.32840    9.54040
       O    13.80161   -6.71344    8.68713
      H1    13.85069   -6.01433    8.03264
       H    18.05569  -11.89668    3.41423
       O    17.44176  -11.70442    4.11613
      H1    17.10070  -10.82601    3.90693
       H    19.08675  -12.79714    8.13589
       O    18.35255  -13.33141    8.39448
      H1    18.75251  -14.06323    8.88159
       H     9.69056   -3.75892    5.05910
       O    10.59582   -3.34287    5.01677
      H1    11.05503   -3.86747    4.36380
       H    15.49019  -13.70594    5.35857
       O    15.83348  -13.72660    4.47558
      H1    16.50826  -13.01570    4.36024
       H    11.62845   -9.11306    5.81393
       O    11.92997   -9.94033    6.18436
      H1    12.71579   -9.59805    6.63268
       H    17.62781  -12.04610   -4.46114
       O    16.98752  -11.47808   -3.90703
      H1    16.81659  -10.79148   -4.60186
       H    15.03884  -10.42745    1.09331
       O    15.05764   -9.46284    0.97674
      H1    15.31113   -9.09211    1.89708
       H    19.44139   -4.52852    7.35421
       O    18.87425   -3.96832    6.78583
      H1    18.10165   -4.04541    7.32238
       H    12.67289  -11.21912    3.40366
       O    11.89950  -10.62937    3.38947
      H1    11.69921  -10.53084    4.30139
       H    17.33692   -8.29552    3.00331
       O    16.64615   -8.98187    3.12634
      H1    16.37109   -8.61224    3.98273
       H    15.28012   -1.23982   -3.78883
       O    15.85865   -0.92646   -3.07475
      H1    15.28063   -0.28272   -2.54761
       H    12.91008   -6.22981    0.57828
       O    13.26713   -5.39936    0.30262
      H1    14.17877   -5.39178    0.68681
       H    13.24729   -4.00713    3.68443
       O    13.58024   -3.27938    4.28708
      H1    14.54101   -3.35459    4.21808
       H    14.22130   -8.15479    7.78636
       O    14.15631   -9.04965    7.41561
      H1    14.03491   -9.73436    8.09025
       H    10.61744   -6.97687    3.73484
       O     9.79452   -6.74146    3.24873
      H1     9.95189   -7.20198    2.38694
       H    14.57747    0.49475   -0.58531
       O    14.42690    0.78891   -1.48553
      H1    14.56487    1.73821   -1.60966
       H    11.84317   -2.86303    1.75736
       O    11.19090   -2.73252    1.00664
      H1    10.71818   -3.59408    1.08337
       H    14.61522   -8.03643   -1.88917
       O    15.32536   -7.61380   -2.39501
      H1    16.09570   -7.49065   -1.87069
       H    16.63255   -2.87879    4.91256
       O    16.40972   -3.72717    4.54112
      H1    16.60755   -4.43774    5.14743
       H    13.99408    0.15999    7.50448
       O    14.13195   -0.79375    7.57563
      H1    14.84117   -1.01417    6.95860
       H    11.37877   -7.32831   -1.41641
       O    10.43644   -7.39903   -1.69432
      H1    10.55078   -7.92245   -2.51602
       H    15.72518   -4.72525    7.44195
       O    16.40458   -4.38139    8.06386
      H1    16.26625   -4.88848    8.85497
       H    17.63196   -2.90513    0.07556
       O    16.71572   -3.11084    0.05772
      H1    16.46662   -3.18196   -0.89214
       H    18.25901    0.15190    7.16954
       O    17.55418    0.67194    6.67517
      H1    17.93123    1.54343    6.55066
       H    19.29175   -4.04999    3.08933
       O    18.68590   -4.55148    2.59842
      H1    17.83074   -4.13795    2.70964
       H    16.87609   -4.60336   -3.64524
       O    16.74311   -5.00318   -4.49786
      H1    15.87454   -5.38288   -4.58532
       H    19.59880  -11.66025    5.98903
       O    18.91580  -11.08666    6.34720
      H1    18.13260  -11.28878    5.79985
       H    13.40505   -3.90634    7.59887
       O    13.78292   -4.53145    6.95959
      H1    13.52516   -4.05089    6.14613
       H    12.04784   -5.17316    2.40054
       O    11.35940   -4.75078    2.99880
      H1    10.62819   -5.37557    3.24277
       H    13.35186   -1.57046    3.91443
       O    13.51083   -0.77354    3.40408
      H1    13.01285   -0.03257    3.73479
       H    11.62159   -6.88115    5.78449
       O    11.94185   -7.40920    5.00344
      H1    12.72828   -7.09086    4.55526
       H    18.27279   -2.94323   -2.52657
       O    17.37467   -3.29154   -2.62195
      H1    16.86003   -2.47451   -2.62710
       H    16.55129   -6.30397    0.86667
       O    15.99780   -5.57865    1.16906
      H1    16.27066   -4.79317    0.68373
       H    15.34197   -1.32346    0.95761
       O    15.04898   -0.40752    1.26069
      H1    14.47533   -0.58003    2.06238
       H    19.25814   -7.78200    2.12559
       O    18.80732   -7.29600    2.83178
      H1    18.67301   -6.35004    2.67129
       H    19.34320   -8.98602    7.08709
       O    18.81412   -8.15561    7.08922
      H1    19.19811   -7.66117    6.41632
       H    14.38988   -6.74821   -3.84487
       O    14.20874   -6.03076   -4.44743
      H1    13.27588   -6.03283   -4.68872
       H    16.62946   -0.25588    5.62480
       O    16.06215   -0.98928    5.40497
      H1    15.52127   -0.66623    4.67179
       H    12.28851   -8.29038    0.85676
       O    12.21768   -7.94936    1.77832
      H1    11.97215   -8.71791    2.26917
       H    17.78175   -6.30883   10.57238
       O    17.03183   -5.73179   10.72959
      H1    16.49158   -6.02029   11.47768
       H    15.76643   -8.67111    6.24426
       O    16.13001   -8.07361    5.59812
      H1    17.07109   -8.16109    5.83093
       H    16.76844   -8.64216   -6.06237
       O    17.31946   -9.38023   -5.80253
      H1    18.00199   -9.01537   -5.25786
       H    18.11468   -6.99810   -1.19139
       O    17.29176   -7.08204   -0.61690
      H1    17.35890   -7.95405   -0.14867
       H    17.06699   -9.72239   10.45788
       O    16.68014   -8.90203   10.76883
      H1    16.34560   -8.43327    9.99470
       H    18.57850  -11.17828   -2.94136
       O    19.27945  -10.90802   -2.30620
      H1    19.32136  -11.62496   -1.60562
       H    18.77850   -7.71142    8.91577
       O    19.05332   -7.48230    9.78108
      H1    18.34613   -7.73901   10.40300

