171
frame 3 | Written by MDAnalysis XYZWriter (release 2.4.3)
       H    15.23015   -0.86809   13.54638
       O    15.57951   -1.42399   14.24698
      H1    14.88352   -1.53342   14.88011
       H    17.13721    3.65633    5.85727
       O    17.50237    3.05717    6.58966
      H1    16.94765    3.16444    7.38238
       H    16.15748    6.30130    5.07903
       O    17.03101    5.84614    4.75806
      H1    17.78131    6.41499    5.04292
       H    15.61054    5.38758   11.78819
       O    15.12509    6.24186   11.81351
      H1    14.32267    6.08144   12.28968
       H    18.09671    4.76972   10.61933
       O    17.50981    4.85837   11.36814
      H1    17.81898    4.08383   11.87335
       H    13.67968   -4.64549    3.46784
       O    13.68560   -5.04008    4.43957
      H1    14.50252   -5.60213    4.46121
       H    13.31795    3.81250    1.94987
       O    13.99730    3.72176    1.25130
      H1    14.14562    2.79589    1.15044
       H    18.61201   -4.51572   11.56463
       O    19.08048   -4.09594   10.81489
      H1    19.33653   -3.25989   11.17931
       H    14.35224    3.21219    9.22666
       O    15.15153    3.67123    9.53225
      H1    15.15785    4.55639    9.15329
       H    14.82434   -6.39672   11.08287
       O    14.33951   -6.60177   10.28686
      H1    14.76903   -6.15076    9.54491
       H    17.99656    2.29014   12.97932
       O    18.64206    2.64665   12.38508
      H1    19.32801    2.96837   13.02332
       H    12.91712   -3.96034    7.80109
       O    13.76564   -3.53807    8.18467
      H1    14.22890   -3.29933    7.39410
       H    18.49990    7.99003    8.08288
       O    18.43729    7.55467    7.20172
      H1    18.34086    8.30687    6.54580
       H    14.70382    0.91343   11.99977
       O    14.24925    0.16798   12.41981
      H1    13.59814   -0.14084   11.82713
       H    12.59442    1.71213    5.37508
       O    13.19892    2.41995    5.60968
      H1    13.14510    3.03560    4.86051
       H    19.03180   -3.78504    6.59455
       O    18.72503   -2.92167    6.87854
      H1    17.99353   -3.15088    7.51814
       H    12.83047    5.12950    3.83326
       O    12.70967    4.17882    3.65739
      H1    11.81409    3.96010    3.96694
       H    14.44982   -0.80502    8.46623
       O    15.15501   -1.04315    9.04730
      H1    15.32995   -1.98251    8.94137
       H    17.52860    1.31067    2.45730
       O    17.99630    2.03889    2.02631
      H1    18.94638    1.78835    2.29662
       H    18.88291   -6.50611   -0.79985
       O    18.17060   -5.86738   -1.02889
      H1    18.49014   -4.99150   -0.59987
       H    16.94250   -6.54267    4.54087
       O    15.99070   -6.64182    4.77850
      H1    15.99796   -7.18458    5.54869
       H    17.18912   -1.39314   -1.84933
       O    17.64596   -0.95948   -2.55596
      H1    17.64504   -0.02396   -2.30016
       H    14.06763   -3.66653    5.15503
       O    14.45165   -2.82528    5.46119
      H1    15.33384   -2.85912    5.09281
       H    14.96315    0.65403    0.75867
       O    14.81404    1.33161    0.06188
      H1    15.65160    1.57735   -0.36386
       H    16.55184    0.66243    4.29712
       O    16.79990    0.09393    3.53288
      H1    16.04190   -0.09597    2.94368
       H    19.41022    2.89451    9.34063
       O    19.16155    3.67220    8.84972
      H1    18.59125    3.38622    8.11522
       H    11.84592   -1.79595    2.36807
       O    11.62063   -2.06438    1.46484
      H1    11.79533   -3.04813    1.60522
       H    17.04119   -1.65692    4.26274
       O    17.01752   -2.56635    4.62458
      H1    17.66972   -2.54270    5.36344
       H    13.43840    1.05859    8.09551
       O    13.42554    0.28735    7.48652
      H1    14.17487    0.34042    6.81105
       H    17.75962    0.00941    7.54337
       O    17.36609    0.56915    8.19337
      H1    16.58528    0.05169    8.48502
       H    15.53572    6.99979    7.01608
       O    15.21605    7.33195    6.18257
      H1    14.31573    7.03511    6.02157
       H    16.64135   -4.42412    8.77364
       O    17.24272   -3.68225    8.90961
      H1    17.98792   -3.97208    9.46755
       H    16.47308   -0.24578   10.59539
       O    17.10626    0.34254   11.06839
      H1    17.71785    0.69038   10.38035
       H    15.99552   -3.75910    0.57745
       O    15.17549   -3.39189    0.93132
      H1    14.62937   -3.60032    0.21197
       H    19.48050    0.40180    6.41224
       O    18.95167    0.74131    5.67689
      H1    18.55524    1.57362    6.04575
       H    19.00601   -3.85830    3.06065
       O    18.11895   -4.13446    2.85689
      H1    17.61344   -3.67668    3.56742
       H    14.72531   -5.20180    7.75417
       O    15.60103   -5.54966    8.07481
      H1    15.79394   -6.37221    7.59304
       H    13.56236   -1.40019    4.66510
       O    13.05653   -1.14521    3.87952
      H1    12.52176   -0.41172    4.19419
       H    17.57110    2.05929   -0.42707
       O    17.43689    1.76086   -1.32014
      H1    18.09489    2.23913   -1.85153
       H    19.86701   -3.81795   14.70208
       O    19.27349   -3.31051   15.28825
      H1    19.12746   -2.42858   14.84326
       H    15.78040    3.11065   11.25017
       O    15.72488    2.49636   11.98501
      H1    16.34861    1.75988   11.82226
       H    11.76376   -0.45858    7.17037
       O    10.91728   -0.79589    6.87708
      H1    11.13186   -1.70145    6.67638
       H    15.03232   -1.57453    1.65167
       O    14.87721   -0.68924    2.04039
      H1    14.44788   -0.87882    2.91979
       H    18.84041   -6.90906    3.44402
       O    18.70669   -6.31946    4.17365
      H1    18.59348   -5.55983    3.62969
       H    12.18439   -0.94157   10.18995
       O    11.96351   -0.07771   10.64850
      H1    11.01251   -0.12877   10.85344
       H    18.91028   -2.66434    0.06252
       O    18.02340   -3.11739    0.13464
      H1    18.12708   -3.37053    1.09774
       H    18.46646    6.35087   11.79543
       O    19.00211    7.11057   11.56968
      H1    18.94832    7.82245   12.16773
       H    19.63301   -8.48909    7.47192
       O    19.06782   -7.88295    7.96642
      H1    19.12195   -6.97169    7.60393
       H    17.88631    3.71536    2.03040
       O    17.73596    4.67761    2.11792
      H1    17.06836    4.82328    2.78817
       H    16.28867    1.36474    6.60712
       O    15.66827    1.12162    5.85733
      H1    14.94890    1.72868    5.77972
       H    16.41158   -8.40748    8.23311
       O    16.42913   -7.98885    7.33717
      H1    17.32601   -7.68529    7.34199
       H    18.50302   -0.11125   14.12243
       O    18.61492   -1.00527   13.85590
      H1    17.80313   -1.33204   13.45961
       H    10.96372    0.18854    4.98776
       O    11.29114    0.82653    4.36856
      H1    10.71750    0.79619    3.61085
       H    11.47904   -3.58485   10.24090
       O    12.36771   -3.30376   10.54319
      H1    12.82313   -3.37251    9.66905
       H    12.05268    2.74848    8.81969
       O    12.78959    2.32242    9.28589
      H1    12.36451    1.51094    9.64912
       H    13.82764    6.24787    8.76560
       O    14.73354    6.23177    9.07497
      H1    14.69465    6.23419   10.02838
       H    16.63513    5.22151    0.68005
       O    16.43985    5.63356   -0.14888
      H1    17.26745    5.83203   -0.67950

