171
frame 11 | Written by MDAnalysis XYZWriter (release 2.4.3)
       H   -13.02573  -11.35076    9.05868
       O   -13.52313  -11.74721    8.31998
      H1   -13.91554  -10.97974    7.95677
       H   -16.68894  -17.53628   15.34402
       O   -16.63713  -17.71453   14.38631
      H1   -16.30962  -18.64086   14.34406
       H   -12.89018  -12.01171   12.35513
       O   -12.90959  -12.91246   11.92830
      H1   -13.54750  -13.42246   12.37986
       H   -17.83397  -10.15370   11.93838
       O   -17.36139  -11.02513   11.92738
      H1   -18.05467  -11.69862   12.13702
       H   -12.32147   -8.46099   17.28530
       O   -13.20138   -8.39928   17.76258
      H1   -13.11975   -7.55335   18.20817
       H    -8.04906   -8.54210    9.22382
       O    -8.97398   -8.45142    8.83358
      H1    -9.24877   -9.39696    8.71602
       H   -13.56561   -8.81090   16.05632
       O   -13.82103   -9.44655   15.39930
      H1   -14.18648  -10.18834   15.86944
       H   -11.82734   -6.86266   10.21085
       O   -12.74764   -7.16644    9.95383
      H1   -13.17548   -7.02827   10.83051
       H   -16.36803  -13.71385   18.21771
       O   -16.51738  -13.47615   17.28949
      H1   -15.70798  -12.95123   17.09380
       H   -10.87205  -15.57782   19.25359
       O   -10.92600  -14.96610   18.43777
      H1   -10.70419  -14.12793   18.91298
       H   -10.05855   -8.03533   16.95944
       O   -10.31119   -8.74484   16.35689
      H1    -9.89604   -8.76630   15.51140
       H   -19.18926  -12.41757    8.26445
       O   -19.96790  -12.72945    7.81870
      H1   -19.84875  -13.57438    7.34181
       H    -9.49405  -12.26284    7.48121
       O    -9.54127  -12.37966    6.53613
      H1   -10.51123  -12.57585    6.41382
       H   -16.12768  -17.30863   11.05560
       O   -16.89082  -17.17796   11.58361
      H1   -16.56010  -17.13271   12.55105
       H   -13.94810  -11.85843   17.55350
       O   -14.01522  -12.00130   16.57255
      H1   -13.35941  -12.75236   16.38338
       H    -9.69469  -11.99856   10.00349
       O    -8.92750  -11.48414    9.79735
      H1    -8.23240  -12.13763    9.73996
       H    -7.97366  -10.86963   11.60239
       O    -7.53687  -10.94455   12.46170
      H1    -6.58850  -10.80985   12.22784
       H   -16.91000  -15.53676    7.90668
       O   -17.72945  -16.02293    8.25222
      H1   -18.34469  -15.87454    7.54106
       H   -10.33312   -8.57102   11.49164
       O   -10.36769   -9.50759   11.79904
      H1   -11.13057   -9.83733   11.25264
       H   -16.59197  -10.38468   13.76575
       O   -16.45490   -9.78001   14.52458
      H1   -15.54005   -9.56337   14.59671
       H    -8.08155  -12.71112   13.32726
       O    -8.75230  -13.30888   13.82228
      H1    -9.33895  -12.71486   14.31320
       H   -17.39165  -10.65344    7.72822
       O   -17.40532  -10.14613    6.86527
      H1   -17.11401   -9.23641    7.22278
       H   -18.69288  -15.22736    9.50575
       O   -19.50780  -14.92975    9.99735
      H1   -20.07085  -14.59839    9.25267
       H    -8.06663  -16.30771    7.04053
       O    -9.00207  -16.67530    6.97990
      H1    -9.38856  -16.17175    7.69296
       H   -12.49557   -9.96664   14.26365
       O   -12.15764  -10.60650   13.60549
      H1   -11.54577  -10.07847   13.08696
       H   -11.74783  -13.82064   15.74468
       O   -12.40433  -14.21119   16.33432
      H1   -11.99896  -14.58718   17.10041
       H   -14.76853  -12.77541    9.08264
       O   -15.56157  -13.27982    9.11055
      H1   -15.70641  -13.57594    9.99412
       H   -14.42408  -10.75432   12.79471
       O   -14.74384  -10.32839   12.00644
      H1   -15.55171  -10.79956   11.79722
       H   -11.99081  -16.12136   10.85027
       O   -12.53004  -16.47986   11.60557
      H1   -12.15975  -16.07032   12.38196
       H   -15.43552  -13.81769   13.23378
       O   -14.89519  -13.41837   13.89590
      H1   -14.78639  -14.09897   14.61106
       H    -8.58645  -16.58784   10.79726
       O    -9.08591  -17.38881   10.82098
      H1    -8.88467  -17.91310   10.05447
       H   -13.22301  -18.00829    7.58602
       O   -13.49427  -17.36104    8.26029
      H1   -13.98012  -17.95100    8.93303
       H   -13.31571   -9.99134   10.96561
       O   -12.62260   -9.82609   10.33342
      H1   -12.59694   -8.85697   10.22100
       H   -11.20494  -11.62278   14.61646
       O   -10.76555  -12.19227   15.23267
      H1   -10.69103  -11.76302   16.07158
       H   -10.18201  -14.62280   13.48202
       O   -10.67796  -15.41636   13.48411
      H1   -10.08769  -16.06712   14.04447
       H   -15.99822   -8.59461   18.84571
       O   -16.05083   -9.25138   18.10620
      H1   -15.12256   -9.24473   17.72825
       H   -10.31716  -17.41560   16.76977
       O   -10.21419  -18.13835   16.11663
      H1    -9.52826  -17.78553   15.50069
       H   -11.10570  -14.37414    9.56548
       O   -11.08608  -13.50695    9.93835
      H1   -11.78839  -13.46551   10.59168
       H    -9.17173  -14.39485   10.92668
       O    -8.27984  -14.67570   11.00887
      H1    -7.98259  -14.33151   11.83068
       H   -13.05625  -17.55524   15.05974
       O   -12.60100  -18.35035   15.20548
      H1   -11.70537  -18.22993   15.49444
       H   -17.11171  -11.94630    9.22175
       O   -17.94783  -11.51610    9.01032
      H1   -18.21551  -11.14693    9.82388
       H   -15.64157  -18.53186    9.13862
       O   -15.04666  -18.60923    9.89397
      H1   -15.15792  -19.44498   10.32269
       H   -14.64658  -16.14812    8.09507
       O   -15.24920  -15.44722    7.68888
      H1   -15.01798  -14.65523    8.15409
       H   -16.47823  -15.13955   16.79171
       O   -16.59744  -16.10958   16.69592
      H1   -17.56042  -16.27940   16.74106
       H    -8.46560   -8.02976   14.08797
       O    -8.62708   -8.94799   14.23615
      H1    -8.22884   -9.35190   13.46178
       H   -12.43276  -12.44689    6.96245
       O   -12.02011  -12.76231    6.16383
      H1   -12.42705  -13.63927    6.08784
       H   -19.50567  -16.79793   10.21900
       O   -19.53437  -17.72583   10.46466
      H1   -18.74135  -17.93237   10.99837
       H   -15.78400  -10.49706    6.55188
       O   -14.81006  -10.44624    6.33918
      H1   -14.60210   -9.49331    6.29233
       H    -6.41986  -12.97190   16.36417
       O    -7.39712  -13.04305   16.29106
      H1    -7.53084  -13.28798   15.37870
       H   -14.66545  -13.82072    5.17637
       O   -13.99175  -14.46873    5.45541
      H1   -14.41866  -14.88080    6.27029
       H   -10.44479  -16.82163    9.77672
       O   -11.04212  -16.22434    9.24159
      H1   -11.68904  -16.72643    8.73184
       H   -18.56580  -10.02721   17.26112
       O   -18.64086   -9.51770   16.39978
      H1   -17.74319   -9.60754   15.97991
       H   -12.62907  -18.75669   13.35179
       O   -12.46504  -19.17540   12.45985
      H1   -12.37374  -18.39028   11.96278
       H   -10.03466  -10.43182   17.43685
       O    -9.98528  -11.37989   17.69005
      H1    -9.12943  -11.68035   17.31891
       H   -17.37558  -13.89308   11.37819
       O   -16.53800  -14.19796   11.64524
      H1   -16.79152  -15.11402   11.38086
       H   -13.60247  -15.48108   15.62647
       O   -14.21516  -16.06046   15.12589
      H1   -14.92785  -16.27092   15.76302
       H   -15.95445   -7.31881   12.41527
       O   -15.19723   -7.56497   11.87761
      H1   -14.98381   -8.44965   12.09505

