171
frame 9 | Written by MDAnalysis XYZWriter (release 2.4.3)
       H    -6.59910   -8.21602    4.30605
       O    -6.33513   -7.63418    5.07476
      H1    -7.18691   -7.51902    5.53439
       H    -2.72760   -8.42761   -0.43350
       O    -3.25703   -8.99144    0.24013
      H1    -3.04642   -8.50703    1.07551
       H    -4.78171   -7.39202   -1.71905
       O    -5.12223   -8.30383   -1.84874
      H1    -4.75956   -8.68021   -1.01211
       H    -6.97358  -10.47630    1.37124
       O    -7.10054  -11.32503    0.81624
      H1    -7.31593  -11.09470   -0.12003
       H    -0.90558   -8.14478   -2.89625
       O    -0.28291   -8.25121   -3.70498
      H1    -0.81597   -8.46678   -4.43561
       H     0.78602  -14.88307    1.61669
       O     1.51726  -14.95894    2.29569
      H1     2.35351  -15.15717    1.78462
       H    -6.29973  -15.27444    6.35949
       O    -5.76642  -15.78455    5.65858
      H1    -6.31727  -16.25634    5.08999
       H    -8.53371  -11.85756    6.18855
       O    -9.06604  -11.68961    5.37226
      H1    -9.85624  -12.25004    5.47111
       H    -9.78001   -7.51010    2.08418
       O   -10.02639   -8.39437    2.41987
      H1   -10.46259   -8.93638    1.74197
       H    -2.26210  -14.69788   -4.01260
       O    -2.08773  -13.93801   -3.49115
      H1    -2.91172  -13.43016   -3.59930
       H    -0.52237  -12.83563   -3.50403
       O     0.27716  -12.38764   -3.81067
      H1     0.46882  -11.69382   -3.14465
       H   -11.57653  -14.48311    2.17173
       O   -11.34385  -13.64833    1.72204
      H1   -10.41547  -13.46182    1.91466
       H   -10.23053  -12.89867   -1.91734
       O    -9.95300  -12.61758   -0.99666
      H1   -10.54366  -11.95499   -0.70716
       H    -4.44546  -10.70871    4.13934
       O    -4.18045   -9.92350    3.55936
      H1    -3.29907  -10.15609    3.25331
       H    -4.39424  -11.51675   -4.03677
       O    -4.51009  -12.47647   -4.03454
      H1    -4.76977  -12.67420   -4.98164
       H    -0.93126  -13.27106    4.90686
       O    -0.37650  -12.63126    5.34142
      H1     0.55213  -12.72278    5.07969
       H    -5.15203   -6.92504    3.96151
       O    -4.26605   -6.49231    3.77118
      H1    -4.45146   -5.99374    2.96762
       H    -8.38946   -7.09335    0.41480
       O    -8.66537   -6.50915    1.11782
      H1    -7.90108   -6.25150    1.71398
       H   -11.07695  -17.13752    1.91646
       O   -10.10897  -17.21527    2.10591
      H1    -9.72972  -16.73080    1.36459
       H    -7.38405  -17.98569    3.51371
       O    -6.56784  -17.44124    3.46484
      H1    -6.58852  -16.91299    2.67924
       H    -4.08054  -12.74175    1.43523
       O    -3.78724  -13.27850    2.20450
      H1    -4.59352  -13.50036    2.71320
       H    -1.61674   -6.59534   -1.37577
       O    -1.50577   -7.57128   -1.41518
      H1    -0.76409   -7.72781   -0.91492
       H    -9.21777  -10.01043    5.08819
       O    -9.52041   -9.09806    5.09571
      H1    -9.62684   -8.78940    4.11653
       H    -3.77745  -14.98780   -0.58084
       O    -4.01930  -14.85206   -1.52191
      H1    -3.18790  -14.65642   -1.98335
       H    -2.25487   -8.97776    5.19120
       O    -2.05953   -8.89952    6.14905
      H1    -1.81593   -9.85804    6.41173
       H    -6.45957  -17.20652   -3.91676
       O    -6.03593  -16.95315   -3.10066
      H1    -6.17792  -16.04549   -2.94804
       H    -4.09350  -12.78630    7.36391
       O    -3.98859  -13.45847    6.66532
      H1    -4.78383  -14.04031    6.75369
       H    -6.86606  -14.18363    2.77601
       O    -6.16608  -14.02093    3.40133
      H1    -6.03555  -14.72774    4.01735
       H    -7.00260   -6.80327   -4.29918
       O    -6.68419   -7.56264   -4.78280
      H1    -7.25852   -8.25920   -4.55946
       H    -8.14503   -7.74683   -1.50567
       O    -7.51687   -8.27821   -1.01309
      H1    -6.70607   -8.27261   -1.50361
       H    -8.62383  -10.32432   -4.82307
       O    -8.06083   -9.89785   -4.14722
      H1    -8.04555  -10.45311   -3.37958
       H     0.34548   -9.61338   -2.71060
       O     0.47196  -10.26651   -1.98194
      H1     0.94781   -9.81887   -1.30194
       H    -1.08739  -14.80664    0.36875
       O    -1.37668  -15.73589    0.50587
      H1    -0.98467  -16.34114   -0.12196
       H    -3.83383   -5.42779   -1.09201
       O    -4.76208   -5.69132   -0.93765
      H1    -5.33815   -4.97408   -1.28378
       H    -2.55368  -10.31956    1.45943
       O    -1.97257  -10.96006    1.85007
      H1    -2.57075  -11.58977    2.28085
       H    -2.39936  -16.11158    1.95829
       O    -2.62767  -16.46851    2.84182
      H1    -2.88058  -15.67714    3.37238
       H    -3.85900   -9.06169    6.50672
       O    -4.79169   -9.12360    6.76931
      H1    -5.37138   -8.66575    6.14421
       H    -6.29106  -13.52271   -3.46011
       O    -6.51114  -14.15096   -2.76829
      H1    -5.65892  -14.28471   -2.23150
       H    -9.07614   -8.68775   -3.40732
       O    -9.67244   -8.02287   -3.01557
      H1   -10.35224   -7.79111   -3.70216
       H    -3.91266  -17.97671    2.20608
       O    -4.38851  -18.75076    2.45527
      H1    -5.12836  -18.48425    2.99916
       H    -8.53083  -12.09336   -1.60586
       O    -7.63079  -11.67288   -1.86020
      H1    -7.06133  -12.43256   -2.02458
       H    -5.33060  -11.77034    0.47035
       O    -4.39493  -11.84348    0.13525
      H1    -4.36468  -12.55551   -0.48319
       H    -1.05670  -12.30266    1.13408
       O    -0.74374  -13.08452    0.59710
      H1    -0.44340  -12.62195   -0.20435
       H    -6.43515  -16.82103    0.52654
       O    -6.37807  -16.14895    1.25738
      H1    -7.07792  -15.51029    0.99683
       H    -1.53382   -7.22444    2.95430
       O    -2.11074   -7.97779    3.20988
      H1    -2.96337   -7.51092    3.25139
       H    -7.72054  -12.78730    1.35013
       O    -8.01065  -13.72988    1.36519
      H1    -8.36678  -13.95472    0.49328
       H     0.66276   -9.19773    2.92813
       O     0.72776   -9.79372    2.17524
      H1    -0.14407  -10.23213    2.20770
       H    -9.23373  -17.16381   -0.52974
       O    -9.51375  -16.30573   -0.32662
      H1    -9.79536  -16.07624   -1.22104
       H    -2.93462  -13.80363    3.45096
       O    -2.62332  -14.19049    4.31001
      H1    -3.10231  -13.79121    5.08297
       H    -6.49365  -18.93703   -0.23747
       O    -6.87069  -18.11684   -0.58062
      H1    -6.50788  -18.00774   -1.48422
       H    -5.12914  -12.28635    5.64394
       O    -5.63405  -11.92217    4.88878
      H1    -5.81480  -12.69351    4.28080
       H    -5.46047   -9.31451    1.87085
       O    -6.30703   -8.88596    2.09155
      H1    -6.47642   -8.33032    1.35681
       H   -10.54157   -9.41958   -1.93849
       O   -11.15318  -10.10729   -1.50668
      H1   -11.56859  -10.67037   -2.18770
       H    -2.67255   -9.88449   -5.08773
       O    -2.40230   -9.36502   -5.86661
      H1    -2.91416   -8.57891   -5.70067
       H    -4.10179   -9.57898   -3.06422
       O    -3.36831  -10.08501   -3.53522
      H1    -2.85214  -10.48203   -2.81650
       H    -2.60777  -10.93677   -0.68347
       O    -2.10173  -11.25223   -1.42951
      H1    -1.28880  -10.73598   -1.32831
       H    -4.73023   -5.28044    0.65607
       O    -4.87537   -5.17682    1.63570
      H1    -4.36556   -4.35786    1.91837

