171
frame 0 | Written by MDAnalysis XYZWriter (release 2.4.3)
       H    15.80755    5.16525   17.75606
       O    15.24307    4.73528   17.03912
      H1    14.78623    5.44281   16.56439
       H    11.99302    4.15516   17.22013
       O    11.37624    4.87770   17.49618
      H1    10.64787    4.45208   17.96420
       H     9.59911    6.38662   10.45453
       O     9.68464    7.30174   10.17821
      H1     8.87649    7.80380   10.50448
       H     4.98656   11.77060   18.47242
       O     5.77006   11.36696   18.07269
      H1     5.98444   10.56027   18.55588
       H     6.90092   12.40470   17.05649
       O     7.47168   13.06508   16.66278
      H1     8.25667   12.52809   16.41986
       H    10.93400    6.59155   17.34240
       O    10.57839    7.50534   17.31347
      H1    11.19037    8.12175   17.61496
       H    10.95444    3.26337   15.00265
       O    10.65276    3.70157   14.22811
      H1    10.77833    3.05258   13.52552
       H     6.46742    4.70499   17.95214
       O     6.37948    5.53375   18.39909
      H1     5.88876    6.16156   17.80208
       H    11.95024   13.12714   16.09568
       O    11.85314   12.55766   16.91466
      H1    11.37601   13.10495   17.50987
       H     4.85110   13.80754   14.23763
       O     5.61674   13.27890   13.89164
      H1     5.43848   13.01815   12.88800
       H    10.45060   11.56607   16.63336
       O     9.75873   10.91024   16.90347
      H1     9.68974   10.32775   16.15768
       H    10.94046    9.14672   13.73583
       O    11.32444    9.29454   12.87373
      H1    11.19773    8.43652   12.41696
       H    11.71015    8.73422    8.60391
       O    11.58461    9.30372    7.84361
      H1    11.50019   10.15650    8.22011
       H     3.84118    6.42862   17.04926
       O     4.58478    7.03610   16.92766
      H1     4.14785    7.93129   16.81231
       H    13.08893    5.99450   14.25387
       O    12.59715    5.57145   13.57733
      H1    12.02233    4.85124   13.84873
       H     6.31509   15.45680   12.83970
       O     7.20018   15.78975   13.05679
      H1     7.89457   15.14800   12.83282
       H    14.75443    9.69318   11.30747
       O    14.42334    9.90332   12.15099
      H1    13.47453    9.64275   12.03354
       H     6.43362    3.14151   14.28758
       O     5.65514    2.65462   14.59479
      H1     5.64715    2.75855   15.52738
       H    11.27050   15.24996   15.56322
       O    11.31705   14.50934   14.98938
      H1    11.79321   14.68534   14.15134
       H     9.65488    8.20643   15.77768
       O     9.42608    8.76472   15.05685
      H1     8.61439    8.47831   14.61312
       H     5.47215    6.21616   15.28256
       O     5.90495    5.79640   14.52049
      H1     5.24011    5.67122   13.84064
       H    11.71741   14.76363   18.68795
       O    10.80523   14.47882   18.70206
      H1    10.30994   15.21898   18.29993
       H     9.45672    6.77765    8.25177
       O     9.22742    6.22761    7.52724
      H1     9.35515    6.62629    6.67497
       H     9.98163   13.86970   14.28244
       O     9.22941   13.56408   13.70479
      H1     8.42740   13.60029   14.22460
       H    10.24376   10.44904   18.52938
       O    10.38540    9.91773   19.33197
      H1    11.11485   10.37631   19.81559
       H     4.03639    9.89419   16.15894
       O     3.77455    9.68750   17.05084
      H1     4.23286   10.30639   17.64655
       H     5.06989   13.62584   10.82745
       O     5.30452   12.80635   11.25132
      H1     4.49848   12.27594   11.11953
       H     7.83504    1.98202   12.99090
       O     8.24959    1.15619   12.66320
      H1     7.48656    0.66371   12.32696
       H    16.90140   11.09747   13.83528
       O    16.03622   11.29506   14.31491
      H1    15.39796   10.73442   13.82488
       H     8.86770    3.96831   14.25056
       O     7.89025    3.99623   14.04380
      H1     7.47541    4.80368   14.39855
       H    12.30281    6.72209   11.75118
       O    12.29349    7.34782   10.98471
      H1    11.34310    7.34910   10.66813
       H     6.93686   14.30776   17.77825
       O     6.53682   14.88826   18.42002
      H1     6.75014   14.61254   19.29861
       H     7.14008   11.76558   10.83866
       O     7.64662   10.94118   10.89937
      H1     8.51463   11.24808   11.05119
       H     2.39161    9.34733   13.03004
       O     2.71593   10.25444   13.09791
      H1     1.88571   10.83780   13.16348
       H     9.85095   12.11575   12.30956
       O    10.25722   11.51788   11.70490
      H1    10.50385   10.69438   12.27583
       H    12.64083    5.95043    9.82979
       O    12.57592    5.39515    9.05166
      H1    11.81493    4.83593    9.23351
       H     4.32349    4.33512   12.01170
       O     4.04651    5.08281   12.55584
      H1     3.52189    4.74412   13.30870
       H    13.21248   14.88758   12.72622
       O    13.11836   13.93267   12.87918
      H1    13.30525   13.54482   11.99940
       H    16.87198   10.67698   17.67419
       O    16.63144    9.79704   17.28850
      H1    15.94049   10.05650   16.67070
       H     7.93798   10.69228    9.03149
       O     7.86294   11.14606    8.19007
      H1     8.35861   10.67381    7.50288
       H    13.50251    4.67020   12.17622
       O    13.71635    3.82677   11.72862
      H1    14.50636    3.42502   12.11690
       H     4.25532    6.80059   11.91379
       O     4.43126    7.65224   11.39921
      H1     5.39366    7.65640   11.28428
       H     8.88591    3.05033   17.74928
       O     9.02114    3.69498   18.48144
      H1     8.27002    3.45361   19.05512
       H    11.05157   12.64985    8.88875
       O    11.71565   12.29527    9.53714
      H1    11.32696   12.27662   10.42265
       H     9.59627    3.69454   10.49579
       O     9.56693    4.36477   11.25708
      H1     8.94468    4.03570   11.95577
       H    15.81515   13.90600   15.05993
       O    14.98191   14.32266   15.27910
      H1    14.36483   13.96253   14.68569
       H     7.88662    6.45920   18.65838
       O     8.47550    7.07099   19.08699
      H1     9.20722    7.17739   18.47400
       H     7.77553    8.50237   19.52794
       O     7.66120    9.47696   19.73198
      H1     8.60499    9.79398   19.64590
       H    15.49192    8.16680   12.58880
       O    15.63606    7.28570   13.00485
      H1    16.35581    6.93047   12.46253
       H    11.48734    1.31131   11.61045
       O    11.53922    1.78206   12.44626
      H1    12.12684    2.49800   12.18943
       H     7.12224    8.37982   12.08997
       O     6.95215    8.33017   11.14852
      H1     6.94412    9.25349   11.03084
       H    13.53083   12.25110    9.92698
       O    14.38048   12.27768   10.45126
      H1    14.42765   11.51824   11.05374
       H     4.50347   10.22520   13.73134
       O     5.33824   10.10010   14.28266
      H1     5.59198   11.02443   14.50830
       H    14.57662    7.11445   14.91488
       O    13.97513    6.76799   15.55564
      H1    13.80302    7.60316   16.04343
       H    15.61769    9.91615   18.67153
       O    15.07083   10.05966   19.42513
      H1    15.53570   10.33828   20.23906
       H     6.59966    7.45687   14.30699
       O     7.07906    8.22227   14.00758
      H1     6.53272    8.97728   14.25390
       H    12.52112    9.48133   17.05086
       O    13.11922    8.81162   17.32872
      H1    13.59140    9.13015   18.09473

