171
frame 7 | Written by MDAnalysis XYZWriter (release 2.4.3)
       H     7.87347   -0.82570    0.11050
       O     8.27423   -1.72705    0.01850
      H1     9.08249   -1.69153    0.61148
       H     7.06583    0.12387    2.49690
       O     7.08838   -0.67320    3.03890
      H1     6.95821   -1.41374    2.42150
       H     5.84987    3.43377   10.98497
       O     4.98086    3.01563   10.77627
      H1     4.45306    3.19875   11.55677
       H     1.96854    3.14441    3.92355
       O     1.79074    3.70648    4.70708
      H1     2.53818    4.24743    4.80918
       H     7.39650    3.75842    3.85207
       O     7.73368    2.86008    3.86845
      H1     7.18301    2.47948    4.58589
       H     2.14093    3.55865    9.20895
       O     2.66623    4.17729    9.75626
      H1     3.51298    3.64946    9.94077
       H     4.55701   -2.48981   13.26429
       O     4.78280   -2.63041   12.32543
      H1     4.06787   -2.18480   11.82874
       H     8.03918   -3.16254   11.96374
       O     7.67236   -2.79983   11.13470
      H1     6.71646   -2.76021   11.16915
       H    -0.27056    5.48345    4.50976
       O     0.15427    5.92347    5.29249
      H1     1.06096    5.60684    5.32535
       H     4.29976   -7.76047    6.15591
       O     4.38981   -6.96192    6.73346
      H1     4.49036   -6.32790    6.02602
       H     7.28249   -2.75498    0.93915
       O     6.92198   -3.20677    1.69327
      H1     6.03892   -3.50550    1.52031
       H     3.10470    4.92642    0.94067
       O     3.41137    3.94409    0.87730
      H1     2.67073    3.52874    0.44102
       H     4.88061   -3.84523    8.48804
       O     5.47694   -3.86190    9.28786
      H1     5.08393   -4.53558    9.82061
       H     1.41691    1.19224   -0.67672
       O     1.82279    1.86694   -0.08301
      H1     2.73047    1.51398   -0.09495
       H     2.67321   -2.89365    7.48360
       O     3.28277   -3.61129    7.25510
      H1     2.72870   -4.35573    7.59332
       H     9.34949   -4.03157    4.13660
       O    10.30184   -3.96518    4.03031
      H1    10.42506   -4.37730    3.19998
       H     2.95355    6.46554    6.73454
       O     3.35191    6.14131    5.93835
      H1     4.18697    5.70198    6.23941
       H     4.60781   -0.80342    5.80516
       O     3.78366   -0.22613    5.76600
      H1     4.01650    0.60485    6.25618
       H     0.26175   -2.20663    2.74310
       O     1.00656   -2.26154    3.41217
      H1     0.78508   -1.65393    4.10640
       H     1.85413   -2.10855   -0.66988
       O     2.42903   -2.84007   -0.98652
      H1     2.39376   -2.58569   -1.90792
       H     6.31448    5.55134    5.19781
       O     5.80770    5.01205    5.86157
      H1     6.14526    5.40644    6.66866
       H     3.74883   -4.35682    5.27117
       O     4.23181   -4.86164    4.67772
      H1     3.71874   -4.86894    3.81897
       H     9.57875   -2.24195    4.25129
       O     9.57224   -1.22713    4.14151
      H1     8.64292   -1.03112    3.85288
       H    -2.46405    1.81716    3.89930
       O    -3.43607    1.88180    3.96656
      H1    -3.74577    1.53176    3.11859
       H     3.33229   -4.44211    1.50991
       O     2.73116   -4.75129    2.20277
      H1     2.08577   -4.02024    2.32650
       H    -0.30176   -3.61406    7.34086
       O    -1.12819   -3.13218    7.19951
      H1    -0.84496   -2.32608    6.66110
       H     7.09270   -4.64189    9.29260
       O     7.64390   -5.49634    9.27796
      H1     7.03088   -6.22149    9.07339
       H     3.26858   -0.52523   10.19571
       O     3.28037   -1.47730   10.27311
      H1     4.00195   -1.74375    9.69634
       H     3.42173   -0.85943    3.85932
       O     3.39111   -0.62754    2.94207
      H1     2.49997   -0.97755    2.72509
       H     6.49640    0.54933    5.74688
       O     6.72241    1.46698    6.04411
      H1     7.24342    1.23876    6.80869
       H    -0.97622    3.83901    3.62211
       O    -1.43068    4.62934    3.49727
      H1    -2.33280    4.53812    3.93654
       H     7.75510    1.39486    1.13981
       O     6.91287    1.53499    1.64122
      H1     7.25795    1.94980    2.45410
       H    -2.08329   -1.07331    9.97338
       O    -1.23022   -0.89910    9.53714
      H1    -1.23294   -1.65756    8.87825
       H     7.11647   -5.18151    3.47566
       O     7.71716   -5.07784    4.23482
      H1     8.31860   -5.78798    4.26008
       H     0.87738   -0.70148    6.39119
       O     0.19307   -0.68247    5.68135
      H1    -0.20128    0.17388    5.49925
       H     8.51235   -1.06416    8.69855
       O     8.26541   -0.67628    9.55205
      H1     8.06119   -1.44499   10.10088
       H     6.60912    0.40009    9.64038
       O     5.74847    0.61837    9.35700
      H1     5.41215    1.37829    9.85928
       H     9.96085   -0.77493    6.70640
       O     9.10878   -0.39535    6.75593
      H1     8.68599   -0.85735    6.01297
       H     2.85411   -0.85062    7.19483
       O     2.04452   -1.12577    7.63693
      H1     2.26667   -1.01346    8.56075
       H     6.84786   -2.10870    5.88501
       O     6.46126   -1.27283    5.54115
      H1     6.29630   -1.29512    4.58631
       H    -1.14610    3.60603    7.47534
       O    -0.48471    3.43697    6.72151
      H1    -0.38812    4.25905    6.27222
       H     0.91482    2.54749    7.31276
       O     1.58611    2.25509    7.93836
      H1     2.49757    2.35059    7.54958
       H     0.24819    0.23032    9.78079
       O     1.04617    0.83927    9.97911
      H1     1.34956    1.17193    9.04935
       H    -0.02554   -2.81642   11.87416
       O     0.37303   -1.92929   11.79538
      H1    -0.17999   -1.62739   11.07223
       H     0.46125   -5.87610    7.48450
       O     1.10658   -5.12410    7.64902
      H1     1.34549   -5.20913    8.59543
       H     4.09144   -4.07555   -0.48664
       O     4.79697   -4.19221    0.18216
      H1     5.12702   -5.03351    0.17344
       H    -1.52970   -1.88716    2.05846
       O    -0.76818   -2.04584    1.43934
      H1    -0.88145   -2.92122    1.04427
       H     8.65847   -4.10698    7.00140
       O     7.95821   -3.52304    6.59325
      H1     7.41102   -4.19442    6.14042
       H    -0.28693    2.41749    5.03111
       O    -0.71829    1.91553    4.33257
      H1     0.01976    1.71677    3.73091
       H     1.75458    1.87543    2.03501
       O     1.69487    1.45842    2.90396
      H1     2.53102    0.89183    2.96262
       H     4.94286    1.24377    7.88579
       O     4.34028    1.80422    7.30818
      H1     5.09386    1.97174    6.65921
       H     2.31146    1.36067   12.43359
       O     2.40979    0.46805   12.74336
      H1     2.02071   -0.05634   12.04076
       H     5.04378    0.93120    1.08497
       O     4.36742    0.54129    0.53162
      H1     4.07895   -0.14441    1.13334
       H    -0.26774    3.30576   11.72351
       O     0.27234    2.54132   11.96405
      H1     0.53588    2.26975   11.05707
       H     8.43698    2.68462   10.17078
       O     9.14425    2.18157    9.75318
      H1     8.81467    1.22670    9.72712
       H     0.03347   -1.24918   -0.04490
       O     0.50583   -0.80256   -0.72612
      H1    -0.22410   -0.70415   -1.35621
       H     9.39639    1.28316    6.05433
       O     9.56883    2.20574    5.86718
      H1     8.91723    2.47702    5.15098

