171
frame 0 | Written by MDAnalysis XYZWriter (release 2.4.3)
       H    -7.41606    6.27551  -17.85619
       O    -6.70459    6.19357  -17.19295
      H1    -5.84967    6.16890  -17.73150
       H    -7.34822   -3.17396  -16.59560
       O    -8.26755   -3.51755  -16.86942
      H1    -8.87137   -2.82512  -16.60224
       H    -4.55515   -2.51455  -15.40142
       O    -3.70263   -2.99795  -15.70190
      H1    -3.26640   -3.04262  -14.85025
       H     5.54253   -0.78345  -18.59794
       O     4.69812   -0.91095  -19.12273
      H1     4.03956   -0.47333  -18.54106
       H    -0.88250    5.58300  -14.07976
       O    -1.48374    4.93878  -14.50040
      H1    -1.45386    4.21248  -13.80198
       H    -3.98557    6.26180  -11.99229
       O    -4.30484    5.37189  -11.92743
      H1    -4.69670    5.30107  -12.79342
       H     4.96331    3.88282  -19.82249
       O     4.74867    3.14102  -19.20103
      H1     4.15507    3.48670  -18.53231
       H    -6.08073    7.93337  -17.30427
       O    -6.01476    8.88002  -17.16120
      H1    -5.98190    9.01008  -16.20860
       H    -5.46518    4.09992  -14.72051
       O    -5.38628    5.00604  -14.48720
      H1    -4.87620    5.41516  -15.24994
       H    -0.59842    7.28951  -16.55764
       O     0.33769    7.32599  -16.19849
      H1     0.42541    8.27930  -16.09857
       H     1.04442    2.50522  -14.03565
       O     1.55378    2.41073  -13.21998
      H1     0.92595    2.22378  -12.51132
       H    -1.47730   -3.57461  -12.31044
       O    -1.89280   -3.59736  -13.24370
      H1    -1.72153   -4.49804  -13.55485
       H    -0.13003    3.32513  -17.23450
       O    -0.34124    3.53682  -18.17940
      H1     0.51831    3.72110  -18.65723
       H    -0.52365    1.21990  -11.80487
       O    -0.20318    1.82137  -11.18988
      H1    -0.82817    2.55786  -11.26747
       H    -7.91378   -3.08579  -18.67470
       O    -7.71316   -2.76590  -19.54441
      H1    -7.66170   -3.48702  -20.20858
       H    -5.14267    1.46294  -18.43184
       O    -5.10795    2.47990  -18.44873
      H1    -5.78545    2.79837  -17.82609
       H     0.53999   -2.09919  -15.44759
       O     0.78970   -1.83215  -16.38688
      H1    -0.04983   -1.60907  -16.85992
       H    -4.26910    6.90391  -18.90204
       O    -4.49424    6.01335  -18.65673
      H1    -4.95712    5.65081  -19.42485
       H    -7.83597   -0.47764  -12.82883
       O    -7.61443   -1.28143  -13.41739
      H1    -8.44243   -1.63507  -13.70958
       H    -3.27266   -5.90085  -17.31334
       O    -4.02874   -5.36850  -17.18957
      H1    -3.75525   -4.57462  -16.68356
       H    -9.61828   -1.77559  -19.49236
       O   -10.29644   -1.22729  -19.07173
      H1   -11.03813   -1.40300  -19.67439
       H    -0.25649   -0.54779  -13.53851
       O    -0.79367    0.16542  -13.15551
      H1    -1.54814   -0.21917  -12.64445
       H   -10.05314    3.90644  -15.75154
       O    -9.66299    3.22490  -15.13463
      H1    -9.12632    3.68274  -14.42096
       H    -6.37555   -1.11372  -19.03916
       O    -5.82807   -0.47342  -18.58844
      H1    -4.93288   -0.56050  -19.01495
       H    -6.60237   -6.55864  -17.15682
       O    -7.05235   -6.83446  -16.35440
      H1    -7.83549   -6.22314  -16.21393
       H     4.22218   -1.22911  -16.49562
       O     4.80459   -2.03246  -16.37049
      H1     5.69168   -1.66859  -16.11423
       H    -9.69359    0.38720  -18.51693
       O    -9.35034    1.08877  -17.93152
      H1    -8.68205    1.53454  -18.48850
       H    -6.03232   -0.92233  -16.45025
       O    -6.28272   -1.69114  -15.88530
      H1    -6.58092   -1.19580  -15.05868
       H     3.55210    0.05608  -14.24545
       O     2.62241   -0.02180  -14.00620
      H1     2.27295    0.81172  -13.73089
       H    -2.83569    3.03233  -12.39903
       O    -2.18181    3.35283  -11.82058
      H1    -2.68402    4.19075  -11.53026
       H    -8.96826    6.99476  -17.95981
       O    -9.15349    6.25096  -18.54058
      H1    -9.76589    5.69972  -18.04742
       H    -3.07629    0.33508  -19.41949
       O    -3.24679   -0.61914  -19.26033
      H1    -2.58806   -0.97231  -18.62051
       H    -3.25665   -1.56862  -11.61403
       O    -2.90052   -0.67909  -11.54286
      H1    -2.89093   -0.60639  -10.59826
       H     0.09319    2.29115  -15.68774
       O     0.43956    3.21195  -15.61655
      H1    -0.31424    3.85624  -15.69592
       H     0.98426   -2.55253  -13.19462
       O     0.35833   -2.32219  -13.92392
      H1    -0.41768   -2.81644  -13.71355
       H    -3.12264    2.48852  -18.62176
       O    -2.46742    2.11497  -19.19001
      H1    -1.65005    2.40047  -18.80854
       H    -3.08093    7.02587  -16.24202
       O    -3.43230    6.65117  -15.39290
      H1    -2.72481    6.01185  -15.18761
       H    -7.47814    4.53325  -16.87803
       O    -7.54121    3.56927  -16.92063
      H1    -8.27801    3.39358  -16.26076
       H    -0.29736    0.14981  -16.32721
       O    -0.81092    0.81239  -15.83750
      H1    -0.69371    0.54477  -14.88327
       H    -2.78507    1.19614  -15.81257
       O    -3.58498    1.71519  -15.73605
      H1    -3.93724    1.62313  -16.62082
       H    -1.73092   -2.79255  -17.86230
       O    -1.73368   -1.86289  -17.52592
      H1    -2.44184   -1.89982  -16.81965
       H   -10.40646   -1.50412  -17.19963
       O   -10.35702   -1.86635  -16.25815
      H1   -11.14635   -2.42435  -16.11834
       H   -12.14745    2.02270  -16.95401
       O   -11.83617    2.35892  -17.78526
      H1   -10.88922    2.10764  -17.71828
       H    -4.64969   -6.43767  -15.34713
       O    -4.74069   -6.91537  -14.48767
      H1    -5.68367   -6.89654  -14.34628
       H    -2.54065    7.26541  -18.46433
       O    -1.68367    6.95992  -18.19168
      H1    -1.68962    5.95968  -18.17859
       H   -10.08798    0.02287  -15.31111
       O   -10.52826    0.64944  -14.71446
      H1   -10.00642    1.44499  -14.93230
       H    -6.40262   -2.78340  -13.09080
       O    -5.70496   -3.39134  -12.76893
      H1    -5.97703   -4.27670  -13.16677
       H    -5.51514   -5.17294  -18.12112
       O    -6.16513   -5.41854  -18.77548
      H1    -5.79653   -6.16101  -19.24720
       H     3.01110   -0.06245  -15.92668
       O     3.35552    0.12084  -16.79670
      H1     3.59720    1.06790  -16.71024
       H     0.77451   -7.13948  -19.18642
       O     0.44067   -6.31099  -18.82119
      H1     1.01597   -5.66249  -19.24372
       H    -0.36533   -3.66249  -17.13467
       O    -0.87849   -4.44770  -17.40191
      H1    -0.23342   -5.08143  -17.76511
       H     2.42453   -3.14012  -18.43388
       O     3.23834   -3.64472  -18.16696
      H1     3.55633   -3.10921  -17.40595
       H    -2.28825   -8.11989  -17.86195
       O    -1.91282   -7.28884  -17.62133
      H1    -1.34197   -7.03438  -18.34961
       H    -6.15653    3.16131  -11.38874
       O    -5.74443    2.47072  -11.98432
      H1    -6.16481    2.48542  -12.88080
       H    -1.39624   -6.53459  -15.17942
       O    -1.13759   -5.64999  -14.83599
      H1    -1.06684   -5.12192  -15.62135
       H    -6.76525    2.82623  -15.53843
       O    -6.33544    2.43490  -14.74469
      H1    -5.61952    2.02542  -15.22503
       H    -4.37634    8.67489  -20.04514
       O    -3.83164    8.59699  -19.21514
      H1    -4.31837    9.07442  -18.51583

