171
frame 8 | Written by MDAnalysis XYZWriter (release 2.4.3)
       H    -6.76834   -8.88879    4.82843
       O    -6.68283   -8.51581    5.68209
      H1    -7.45727   -8.10368    5.98642
       H    -2.78534   -8.21639   -0.21272
       O    -3.26388   -8.60495    0.53157
      H1    -3.28755   -7.84471    1.21177
       H     5.12552   -8.55377    2.95691
       O     5.15763   -7.97335    2.15340
      H1     4.27923   -7.88903    1.72470
       H     5.23452   -8.29002    9.92708
       O     5.51040   -8.46265   10.86330
      H1     6.08705   -9.25600   10.78111
       H     0.74186   -8.23497    1.24768
       O     0.71215   -7.94625    0.34987
      H1     1.61591   -7.69871    0.11742
       H     1.11591  -14.35384    7.85280
       O     1.33956  -13.93454    8.68461
      H1     1.73513  -13.04520    8.34742
       H     4.25029   -8.16740    5.57137
       O     3.90928   -7.42181    6.13375
      H1     4.41907   -6.63625    5.72832
       H     5.29069   -7.52059    7.45172
       O     6.04489   -7.62871    8.06009
      H1     6.77118   -8.08592    7.59205
       H    -1.07932   -6.13345    5.83489
       O    -0.95642   -6.98697    6.34400
      H1    -1.79131   -7.43559    6.26276
       H     1.56443  -13.94155    1.64054
       O     1.89156  -14.50451    2.32206
      H1     2.85205  -14.37105    2.25792
       H     0.24651  -12.14763   11.22637
       O     0.68811  -12.99789   11.30210
      H1     0.86660  -13.22179   10.37193
       H     2.39285   -6.42400    3.42965
       O     1.85256   -7.23628    3.47253
      H1     1.97875   -7.63829    4.33069
       H     4.39591   -4.23435    8.08053
       O     5.06709   -4.36808    8.76743
      H1     4.57556   -4.72273    9.56141
       H     0.19313   -4.94079    0.70745
       O     0.00516   -4.24193    0.03058
      H1     0.83383   -3.97370   -0.36518
       H     2.59953   -3.28925    7.23348
       O     2.69988   -4.12768    6.81315
      H1     2.22263   -4.71321    7.41858
       H     0.49372   -2.40943    3.00586
       O     1.23065   -2.68178    3.49653
      H1     0.97754   -2.83044    4.39386
       H     4.49695  -10.95487    1.48721
       O     5.26565  -10.62958    1.00166
      H1     5.30724   -9.67766    1.27242
       H     2.81429  -11.87558    3.23469
       O     2.99085  -11.25295    2.50155
      H1     2.09532  -10.75479    2.33202
       H     5.03314   -4.63835    5.96025
       O     5.33372   -5.11119    5.18906
      H1     4.69285   -4.96042    4.45838
       H     3.92503   -4.33608    2.17183
       O     3.59825   -4.63598    3.02010
      H1     2.91772   -4.00825    3.26896
       H    -4.50296  -10.45121    4.81905
       O    -4.11919   -9.79050    4.18918
      H1    -3.43503  -10.20381    3.60517
       H    -0.63363  -13.30202    4.48339
       O    -0.14484  -13.14864    5.33274
      H1     0.81849  -13.00454    5.15427
       H    -0.79308   -4.34388    7.81793
       O    -1.34865   -3.67692    7.39460
      H1    -0.88573   -2.93485    6.95022
       H    -2.77310   -6.70089    9.44830
       O    -1.86996   -7.01162    9.65208
      H1    -1.38771   -6.25997    9.11273
       H    -5.03878   -7.51663    5.02813
       O    -4.51859   -6.76931    4.77145
      H1    -5.06305   -6.39600    4.02598
       H    -2.80462   -8.95982   12.29218
       O    -1.94982   -8.54437   12.05388
      H1    -2.11542   -8.12802   11.11863
       H    -5.28084   -6.82751   10.32917
       O    -4.89892   -6.79198    9.45106
      H1    -4.77384   -7.68165    9.12730
       H    -1.64905   -6.26290   -0.94800
       O    -1.41744   -7.17087   -1.20719
      H1    -0.65482   -7.29009   -0.71526
       H    -0.83348  -10.13191    8.06859
       O    -1.32218  -10.75579    7.48666
      H1    -0.69637  -11.38682    7.06220
       H    -0.30883   -9.57838   11.83521
       O     0.22467  -10.16277   11.24820
      H1     1.06239  -10.19571   11.66171
       H    -3.22662   -9.19903    5.70028
       O    -2.81311   -8.86256    6.49900
      H1    -2.24065   -9.63240    6.86060
       H     2.14606   -5.91110   11.18608
       O     1.27290   -5.84216   10.81784
      H1     0.98134   -4.94611   11.09386
       H     5.10433  -12.13012    6.48536
       O     4.22567  -12.36564    6.88940
      H1     4.45989  -12.58036    7.83658
       H    -2.99288  -14.74648    6.39096
       O    -3.51742  -14.57808    5.60228
      H1    -4.37146  -14.98474    5.86458
       H     0.40606   -9.49492   -2.29390
       O     0.36547   -9.93557   -1.44370
      H1     0.66109   -9.21399   -0.82720
       H    -2.67083   -9.81955    1.68869
       O    -2.46652  -10.69333    2.12770
      H1    -3.21137  -11.16680    1.86683
       H     3.02297   -7.87804    7.64891
       O     2.81438   -8.43474    8.38621
      H1     1.89786   -8.31575    8.73517
       H    -0.01087   -9.30116    9.91350
       O    -0.14161   -8.93608    9.01308
      H1    -0.78866   -8.20440    9.00232
       H    -4.26988   -9.12880    7.61425
       O    -5.02222   -9.21717    8.21751
      H1    -5.80662   -9.02888    7.68277
       H    -0.30818  -15.54557    6.89422
       O     0.62394  -15.44669    6.69187
      H1     0.59602  -14.89640    5.93457
       H    -4.13119   -4.05217    8.02049
       O    -4.31756   -4.22202    8.94362
      H1    -4.62860   -5.12669    8.79885
       H     3.82676   -9.75010   11.26308
       O     3.20916  -10.19592   11.83261
      H1     3.42023  -11.11289   11.81771
       H     0.03105   -8.61157    5.90403
       O     0.68564   -9.20717    5.53633
      H1     0.92384   -9.79416    6.25172
       H     2.93120  -11.07490    7.58833
       O     2.03171  -10.99064    7.83915
      H1     1.98406  -10.10163    8.26465
       H    -1.54645   -4.26639    5.64169
       O    -1.49634   -4.70458    4.81221
      H1    -2.29732   -5.17954    4.58485
       H     4.30279  -10.28960    3.84001
       O     4.75675   -9.52950    4.22721
      H1     5.55894  -10.02031    4.56307
       H    -2.34310   -6.42018    2.33179
       O    -3.24567   -6.77508    2.42408
      H1    -3.35240   -6.99180    3.35710
       H     3.63670   -8.05983   -0.39391
       O     3.30655   -7.28121    0.07920
      H1     3.35348   -6.56137   -0.59295
       H     0.26799   -9.89499    3.54054
       O     0.47907  -10.26593    2.72283
      H1    -0.35212  -10.57248    2.32813
       H     2.84319  -12.42383    5.61488
       O     2.40928  -12.80102    4.85055
      H1     2.81796  -13.69508    4.69634
       H     0.48129   -6.49248    7.74994
       O     0.54290   -5.57790    8.18703
      H1     0.88229   -5.65816    9.08745
       H    -2.15919  -12.78756    2.74869
       O    -2.10066  -13.50935    3.36906
      H1    -2.91167  -13.42369    3.88689
       H    -4.89271   -4.08128    5.79655
       O    -4.96860   -4.78747    6.40007
      H1    -5.08925   -5.61365    5.92442
       H    -4.65257  -11.99203    6.80824
       O    -5.17586  -11.51064    6.12012
      H1    -5.34004  -12.09566    5.34466
       H    -5.60524   -9.05047    3.08172
       O    -6.39629   -8.78154    2.61412
      H1    -6.19692   -8.17974    1.91716
       H    -3.02020  -11.48619    8.29561
       O    -3.93808  -11.82874    8.51134
      H1    -4.42366  -10.99559    8.44370
       H    -0.70654   -5.45328    3.11740
       O    -0.47602   -6.00734    2.39299
      H1     0.36278   -6.44367    2.65063

