171
frame 3 | Written by MDAnalysis XYZWriter (release 2.4.3)
       H   -15.33987   12.32134    1.44370
       O   -16.13607   12.80506    1.27943
      H1   -15.92184   13.71217    1.35575
       H   -11.48750    9.88354    2.98602
       O   -12.34440   10.29268    3.22997
      H1   -12.77965   10.55223    2.40994
       H   -17.40743   12.73597   -0.03139
       O   -18.01510   12.54178   -0.76416
      H1   -17.57191   13.02801   -1.55892
       H   -11.13702   17.31203   -0.25503
       O   -11.47298   16.92716    0.55653
      H1   -10.76492   16.48796    1.03300
       H   -11.85070    8.28990   -5.21489
       O   -11.11861    8.48077   -4.62551
      H1   -11.36014    8.23238   -3.68425
       H   -17.11788   10.59780   -5.77139
       O   -17.27985   10.39019   -4.85066
      H1   -17.60776    9.46704   -4.76168
       H   -13.58817    5.27763   -2.18865
       O   -13.80711    5.79417   -2.98590
      H1   -13.80533    6.74509   -2.74844
       H   -12.17109    8.85744   -2.01583
       O   -11.27183    8.66983   -1.70755
      H1   -11.51071    8.05014   -1.02911
       H   -14.59777    8.66107   -1.80100
       O   -13.87980    8.63475   -2.48094
      H1   -14.00183    9.45631   -3.02136
       H   -12.94924   16.02784    0.03884
       O   -13.79803   15.67350   -0.34263
      H1   -14.23985   16.41689   -0.81170
       H   -18.70342   17.97797   -5.32588
       O   -18.37209   18.02292   -6.21225
      H1   -18.58351   18.96942   -6.54988
       H    -8.05250   11.00139   -4.55628
       O    -7.88466   11.91758   -4.99617
      H1    -8.59236   11.96693   -5.64442
       H    -8.96006   10.76770   -1.19529
       O    -9.85912   10.90012   -0.90448
      H1   -10.30109   10.08756   -1.09937
       H   -13.77897   18.99318    2.84261
       O   -14.69086   19.22731    2.61708
      H1   -15.26348   18.50555    2.97466
       H   -14.45383   12.10878   -5.44468
       O   -14.64447   12.83017   -6.08233
      H1   -13.80306   13.13646   -6.45024
       H   -12.59674   10.36195   -6.62457
       O   -12.68326    9.67011   -7.29560
      H1   -13.47424    9.93083   -7.80504
       H   -11.83902   18.21763    1.77705
       O   -11.51887   19.03164    2.27096
      H1   -10.79024   18.66062    2.84159
       H   -13.29914   17.29926   -4.33146
       O   -13.09890   17.94338   -3.62632
      H1   -12.43856   17.50702   -3.05719
       H   -15.07220   18.43349   -1.31211
       O   -15.40822   17.57305   -1.59411
      H1   -15.02881   17.33477   -2.42844
       H   -15.16988   15.73133    0.89398
       O   -15.96402   15.62307    1.41441
      H1   -16.75422   15.75632    0.77466
       H   -18.46895   18.40897   -0.41497
       O   -18.34405   18.13343   -1.30592
      H1   -17.38817   18.09691   -1.41552
       H   -13.34340   11.40011    0.50144
       O   -13.85531   10.83478    1.03614
      H1   -14.21390   10.19220    0.40672
       H   -14.89507   13.30791   -2.42898
       O   -14.12245   12.67219   -2.45809
      H1   -13.98178   12.51203   -1.51317
       H   -10.75287   16.93608   -6.17419
       O   -11.13022   16.39143   -6.92260
      H1   -12.07650   16.60496   -6.98147
       H   -17.20892    7.27211   -3.95846
       O   -17.94759    7.78970   -3.63170
      H1   -17.70527    8.40086   -2.93810
       H   -14.27570   11.43363   -3.49530
       O   -14.51025   10.77725   -4.25030
      H1   -15.51313   10.79381   -4.21063
       H   -10.41179   18.78862   -5.15367
       O   -10.16831   17.93344   -4.81261
      H1    -9.29090   17.81927   -5.20647
       H    -8.77178   17.06726   -1.78459
       O    -7.98461   16.59600   -1.60441
      H1    -8.13298   15.75786   -2.07607
       H    -9.80955   12.77908   -0.45940
       O   -10.07834   13.69982   -0.44937
      H1    -9.70189   14.04498   -1.28691
       H   -11.37166   12.59150   -4.02886
       O   -11.58916   13.44730   -3.62156
      H1   -12.28238   13.30810   -2.97033
       H   -15.27323    8.07788    0.81071
       O   -15.16662    8.64144    0.03979
      H1   -16.02862    8.96426   -0.20253
       H   -10.56830   17.67899   -3.15639
       O   -10.73773   17.59546   -2.18542
      H1   -10.48852   18.50956   -1.89714
       H   -13.03410    7.00573    3.17423
       O   -13.55149    7.34184    2.49540
      H1   -13.05637    7.14276    1.69479
       H   -17.73697   17.64562    2.55722
       O   -17.00031   17.33377    3.07993
      H1   -16.57621   16.72108    2.44931
       H   -17.29091   10.63870    1.82408
       O   -17.77068   10.57211    2.65954
      H1   -18.07160    9.64377    2.76021
       H   -10.19757   12.91913    3.84725
       O    -9.35764   13.23961    3.47680
      H1    -9.54499   13.93716    2.85342
       H   -16.41066   14.81834   -1.67363
       O   -16.54547   14.37455   -2.59325
      H1   -17.55872   14.43463   -2.78695
       H   -19.29196   13.32004   -3.75917
       O   -19.22074   13.99895   -3.06810
      H1   -19.25880   13.51530   -2.26136
       H   -14.37531   16.41500   -6.92259
       O   -13.93125   16.47116   -6.06651
      H1   -13.40345   15.64805   -5.94052
       H   -12.00303   11.91177    4.46548
       O   -11.49607   12.48111    5.06419
      H1   -10.94165   11.83846    5.60007
       H    -9.76864   11.10563   -7.38421
       O    -9.73931   12.04445   -7.02428
      H1   -10.52886   12.46407   -7.30866
       H   -19.48426   15.55384   -6.15346
       O   -19.40660   14.76616   -6.70702
      H1   -18.68032   14.90996   -7.28684
       H   -11.87674   13.79943   -8.42104
       O   -11.83659   13.79615   -7.45530
      H1   -11.47179   14.66156   -7.13695
       H   -16.66711   17.98490   -5.31021
       O   -15.82932   18.08271   -4.88268
      H1   -15.18777   17.39449   -5.25640
       H   -16.11519   17.40126   -8.22661
       O   -15.72913   16.51950   -8.42214
      H1   -15.49670   16.56756   -9.33744
       H   -11.76524   13.43767   -0.17606
       O   -12.68209   13.15871   -0.04215
      H1   -13.16639   13.98777   -0.15965
       H   -16.34722   10.60101   -7.99752
       O   -16.60263   11.23417   -7.30835
      H1   -15.80251   11.55647   -6.96119
       H   -16.56761   19.64936   -3.25680
       O   -17.50860   19.88445   -3.14403
      H1   -17.94462   19.24108   -2.48348
       H   -10.93430   11.35820   -5.74619
       O   -11.57594   11.09570   -5.09338
      H1   -11.19298   10.22163   -4.85333
       H   -12.12278    6.11974    0.19122
       O   -12.01180    7.05537    0.16988
      H1   -11.07715    7.22273    0.50111
       H   -18.24334   16.57130   -0.76488
       O   -18.03566   15.72025   -0.32553
      H1   -18.85710   15.32079    0.02525
       H   -18.07548    8.59137   -0.72008
       O   -17.42477    9.22912   -1.16007
      H1   -17.75275   10.08391   -0.94951
       H    -9.41182   13.73265   -3.44467
       O    -8.85154   14.20447   -2.80248
      H1    -7.94897   13.76265   -2.79442
       H    -9.60519   14.69766    0.90708
       O    -9.61813   15.20677    1.70326
      H1    -8.77657   15.71482    1.78184
       H   -18.59637   11.69894   -5.19312
       O   -19.38426   12.29480   -5.32504
      H1   -18.96694   13.01757   -5.85276
       H   -13.09602    7.92943   -6.87257
       O   -13.14475    7.27385   -6.11284
      H1   -14.04796    7.26286   -5.74763
       H   -16.71766   15.03652   -8.60943
       O   -17.31380   14.25732   -8.47323
      H1   -16.86258   13.68999   -7.85293

