171
frame 4 | Written by MDAnalysis XYZWriter (release 2.4.3)
       H    -2.36197   -8.51158    0.41163
       O    -2.65692   -9.21369    0.99510
      H1    -2.90840   -8.74030    1.80919
       H    -5.34334   -8.00318   -2.60298
       O    -4.73419   -8.21030   -1.87047
      H1    -4.57991   -7.39370   -1.36128
       H   -10.65615  -16.51821   -3.79895
       O    -9.89102  -16.02266   -4.12713
      H1    -9.17174  -16.61562   -4.30465
       H    -7.14297   -8.75838    2.23561
       O    -7.78680   -8.18438    1.80988
      H1    -7.76962   -8.48178    0.88091
       H    -9.30729  -18.95618    1.56198
       O    -9.46999  -19.64370    0.88381
      H1   -10.37420  -19.93897    1.14589
       H     0.02644  -16.65409    1.93991
       O     0.88768  -17.17238    2.01353
      H1     1.34753  -16.60759    2.59770
       H    -3.27254  -17.86337   -4.54100
       O    -2.34343  -17.89663   -4.78143
      H1    -2.07932  -17.09526   -5.27595
       H    -6.35373  -16.80590    5.68082
       O    -5.49441  -16.46873    5.24038
      H1    -5.91310  -15.63875    4.80963
       H   -10.14145  -16.99202    1.96904
       O    -9.40921  -17.44986    2.42752
      H1    -9.75056  -17.58705    3.34119
       H    -6.99258  -12.15876    6.02535
       O    -6.94204  -11.86315    5.13066
      H1    -7.74348  -11.98517    4.58231
       H   -10.43863  -13.48282   -6.42361
       O   -10.48588  -12.51595   -6.31236
      H1    -9.76793  -12.29469   -5.70120
       H    -5.67682  -19.25946   -2.72156
       O    -6.05342  -19.09105   -1.86928
      H1    -6.62609  -18.32124   -1.87660
       H    -0.99041  -14.30648   -5.81079
       O    -0.57756  -13.37825   -5.65175
      H1    -1.27066  -12.84115   -6.10969
       H    -8.16017  -17.94315   -5.44357
       O    -7.69953  -17.15695   -5.24249
      H1    -7.39967  -16.88470   -6.08738
       H     0.14437  -12.79790   -4.05405
       O     0.64522  -12.33756   -3.38513
      H1     0.52773  -12.80319   -2.51097
       H    -9.01221  -13.31834    3.58430
       O    -8.98722  -12.49272    3.11409
      H1    -8.53326  -12.44132    2.26583
       H   -11.82449  -12.56552   -0.08960
       O   -10.91620  -12.28441   -0.37914
      H1   -10.98230  -11.38264   -0.56712
       H    -5.56552  -15.63641   -7.21786
       O    -6.35878  -16.18285   -7.51312
      H1    -6.50053  -15.69116   -8.32947
       H    -3.68868  -11.62058   -3.38558
       O    -3.75859  -12.10226   -4.20246
      H1    -4.51780  -11.67499   -4.61793
       H    -9.75629  -19.05798   -0.84039
       O    -9.72905  -18.72520   -1.77827
      H1   -10.53219  -18.31234   -1.93864
       H    -3.91572  -16.07824    6.03437
       O    -3.21559  -15.59983    6.59718
      H1    -2.56048  -15.51185    5.92674
       H   -12.22205  -16.69741    2.06000
       O   -11.65626  -16.61460    1.25325
      H1   -11.84764  -15.67842    1.03479
       H    -7.21208  -16.73741    2.53432
       O    -6.52738  -16.17662    2.13164
      H1    -7.05377  -15.67600    1.53306
       H    -4.93466  -11.61969    1.11264
       O    -4.45876  -11.79273    1.96698
      H1    -4.91889  -12.48907    2.44602
       H    -3.02100  -17.40998    3.99093
       O    -2.29234  -17.52311    4.64857
      H1    -1.65731  -18.12552    4.23465
       H    -9.78604  -14.46558   -2.83015
       O    -9.57403  -13.59268   -2.52232
      H1   -10.44368  -13.18994   -2.20319
       H    -3.90484  -13.87219   -6.73838
       O    -4.08778  -14.81214   -6.55634
      H1    -4.30326  -14.85949   -5.61636
       H    -5.52752  -14.93552   -0.88167
       O    -4.92505  -14.23177   -1.12060
      H1    -4.04932  -14.56468   -0.86709
       H    -6.04936  -17.32966   -4.68139
       O    -5.16249  -17.42778   -4.31573
      H1    -4.95050  -16.56692   -3.94237
       H    -3.88208  -14.15330    5.77644
       O    -4.20831  -13.28518    5.44333
      H1    -4.77471  -13.37323    4.64790
       H    -6.54953  -13.03245    3.84573
       O    -6.08327  -13.66688    3.30482
      H1    -6.58555  -14.47476    3.05654
       H    -8.02359   -8.53581   -1.69829
       O    -7.52194   -8.66169   -0.85953
      H1    -6.56691   -8.67041   -1.09937
       H    -7.83057   -9.85865   -5.68814
       O    -7.21359   -9.70426   -4.95762
      H1    -7.44833  -10.32689   -4.22016
       H    -4.99865  -19.17221   -0.31329
       O    -4.21619  -19.50995    0.21909
      H1    -4.29071  -18.91302    0.99561
       H    -1.46306  -15.13132   -1.20963
       O    -2.35483  -15.52859   -1.13822
      H1    -2.28674  -16.44412   -1.43832
       H    -2.59756  -15.51645   -6.61174
       O    -1.67521  -15.82373   -6.33486
      H1    -1.11286  -15.84444   -7.14019
       H    -1.74338  -10.11036    3.57594
       O    -2.37417  -10.84848    3.70833
      H1    -2.87839  -10.93265    2.86788
       H    -2.75983  -11.54755   -7.56062
       O    -3.44986  -12.29352   -7.63803
      H1    -4.27023  -11.89998   -7.29929
       H    -1.67682  -15.81566    0.87838
       O    -1.57605  -16.06514    1.79474
      H1    -1.52012  -15.25232    2.34322
       H    -4.26842  -13.73730   -3.94224
       O    -4.57440  -14.62180   -3.73012
      H1    -4.86742  -14.51912   -2.81057
       H    -3.12787  -16.87543    2.10350
       O    -3.92752  -17.43452    2.29573
      H1    -4.70393  -16.90634    2.10157
       H    -8.03184  -12.31263   -2.87391
       O    -7.29850  -11.64798   -2.94113
      H1    -6.89786  -11.79535   -2.06349
       H    -4.81875  -11.34436   -1.14507
       O    -5.64239  -11.69891   -0.68776
      H1    -5.39132  -12.62870   -0.58372
       H    -0.58672  -13.13446   -0.70565
       O    -0.06484  -13.82447   -1.06617
      H1     0.73997  -14.09466   -0.48879
       H    -8.20756  -15.05327   -0.59440
       O    -7.79020  -14.78525    0.22605
      H1    -8.03196  -13.84275    0.34090
       H    -1.56917  -18.19964   -3.02314
       O    -1.02034  -18.23488   -2.22601
      H1    -1.20089  -19.07804   -1.77702
       H    -7.90633  -11.37571   -0.22639
       O    -8.20347  -12.05503    0.38237
      H1    -9.14842  -12.07226    0.07286
       H     0.35240  -11.39930    2.24054
       O     0.18004  -12.10503    1.53540
      H1    -0.52948  -11.64810    1.06993
       H   -11.68260  -15.24337   -6.57274
       O   -10.72651  -15.28931   -6.63967
      H1   -10.44451  -15.61141   -5.78160
       H    -0.86809  -13.24907    2.71245
       O    -1.39745  -13.64658    3.39384
      H1    -1.85235  -12.90939    3.84974
       H    -8.46802  -17.46790   -1.96399
       O    -7.64993  -16.94804   -2.13566
      H1    -7.75608  -16.37498   -2.93773
       H    -6.07748  -10.48042   -6.28702
       O    -5.78925  -11.20192   -6.84801
      H1    -6.39619  -11.28469   -7.62659
       H    -5.38403  -10.44404    2.79084
       O    -5.82263   -9.70109    3.27674
      H1    -6.03129  -10.06298    4.17656
       H   -12.39465  -17.71440   -2.00800
       O   -11.93249  -17.33904   -2.76191
      H1   -12.29245  -17.77318   -3.51874
       H    -2.11731  -10.03246   -4.42593
       O    -1.69344   -9.55303   -5.15737
      H1    -2.20328   -8.74155   -4.94172
       H    -3.88903   -9.71926   -1.98280
       O    -3.48394  -10.63349   -2.04353
      H1    -2.64790  -10.65267   -1.58992
       H    -1.84396  -10.57438    0.05342
       O    -1.37649  -11.32028   -0.45944
      H1    -0.63865  -10.86273   -0.82756

