171
frame 11 | Written by MDAnalysis XYZWriter (release 2.4.3)
       H    -8.74220   18.16139   -7.17378
       O    -8.73523   18.24618   -6.19167
      H1    -9.60652   18.54340   -5.90535
       H   -12.87692   17.81634    0.19374
       O   -13.22989   18.50199    0.76761
      H1   -12.64572   19.26444    0.50670
       H   -12.73838   15.18631    0.18308
       O   -12.73283   15.95249   -0.40319
      H1   -13.18615   15.57807   -1.17763
       H    -2.44245   16.88450   -1.57932
       O    -2.96890   17.31481   -0.90409
      H1    -2.66662   18.19467   -0.66586
       H    -8.00549   19.37537    2.26896
       O    -8.14569   18.60887    1.69813
      H1    -9.06796   18.40148    1.69318
       H   -10.04120   11.07998   -7.62089
       O   -10.25753   10.22132   -7.29001
      H1   -10.23342   10.38501   -6.34143
       H    -6.59169   17.94565    4.27419
       O    -5.90318   17.36744    4.00103
      H1    -6.04532   17.23881    3.07901
       H    -2.04851   18.33169   -5.26278
       O    -1.21944   18.01184   -4.91036
      H1    -0.69434   17.89118   -5.72499
       H   -11.69406   19.44403   -4.73789
       O   -11.42153   18.78694   -5.33667
      H1   -11.78271   19.06600   -6.16219
       H   -10.61683   16.38424  -10.09415
       O   -11.25247   16.64852  -10.80873
      H1   -10.68428   17.26586  -11.35767
       H   -13.41929   15.76301   -3.47533
       O   -14.08393   15.45823   -2.81819
      H1   -14.91638   15.92805   -2.94969
       H    -8.10463   11.48678   -3.71350
       O    -7.93373   12.22791   -4.28922
      H1    -8.23199   11.95190   -5.16247
       H    -7.61048   13.36697    0.43304
       O    -7.17133   12.54221    0.33966
      H1    -6.34973   12.71261   -0.13168
       H    -2.21069   15.37680   -3.45268
       O    -1.58580   16.04274   -3.07148
      H1    -1.46569   16.67252   -3.81987
       H    -6.41372   17.39621   -2.73887
       O    -6.96219   18.16795   -2.62705
      H1    -6.46247   18.71461   -1.93891
       H   -13.72376   12.83331   -4.47860
       O   -14.30882   12.93547   -5.22117
      H1   -13.72014   13.04652   -6.00562
       H   -11.82075   18.10574    1.98819
       O   -10.90799   18.36330    2.30337
      H1   -10.60148   17.74233    2.93778
       H   -11.40874   15.68869   -4.37315
       O   -12.21774   16.22210   -4.53334
      H1   -11.87156   17.13773   -4.57871
       H   -16.07824   17.73398   -2.07738
       O   -16.49438   16.87046   -2.31269
      H1   -16.90039   16.91810   -3.17389
       H    -7.44336   15.31626  -11.40725
       O    -8.23292   15.84126  -11.30623
      H1    -8.20715   16.24757  -10.43341
       H   -15.69555   19.80476   -0.82194
       O   -15.14399   19.13896   -1.28540
      H1   -14.58007   18.95576   -0.50427
       H   -14.38418   13.75840   -2.27378
       O   -13.98521   12.97457   -1.86419
      H1   -14.65376   12.29903   -1.68692
       H    -8.69326   18.51764   -9.68470
       O    -8.46658   17.93805   -8.94067
      H1    -9.14170   17.24402   -8.94663
       H    -9.97180   15.71218   -7.53246
       O   -10.47139   15.99788   -8.29324
      H1   -11.35209   16.06367   -7.95348
       H    -9.71377   15.81437    3.90808
       O    -9.97390   16.66532    4.31436
      H1   -10.82789   16.61288    4.73677
       H    -8.70287   16.45368   -5.96667
       O    -8.81071   15.46312   -5.81753
      H1    -7.94258   15.07784   -5.89958
       H    -7.82333   15.43950   -2.61670
       O    -7.23477   14.76800   -2.21047
      H1    -7.63782   13.95154   -2.54517
       H    -4.06720   15.69177   -5.53801
       O    -4.75313   16.30868   -5.24931
      H1    -4.52101   16.34040   -4.27523
       H    -4.84137   11.86022   -3.73585
       O    -5.31231   12.68301   -3.83445
      H1    -6.21832   12.45733   -3.88917
       H    -6.50585   15.18480   -8.67277
       O    -6.10525   15.45064   -9.55146
      H1    -5.44781   16.09694   -9.14285
       H    -9.77916   14.81011   -1.43335
       O    -9.95759   14.93523   -0.50673
      H1   -10.57870   15.68555   -0.53365
       H   -11.51704   11.06148   -1.67488
       O   -11.79955   11.43229   -2.51929
      H1   -12.47124   12.10925   -2.27884
       H    -8.86904   16.07044   -4.22206
       O    -8.97600   16.31939   -3.27198
      H1    -8.39292   17.14940   -3.15738
       H    -6.47804   13.62107   -6.70106
       O    -6.32564   14.59758   -6.81568
      H1    -5.82010   14.91303   -6.05640
       H    -4.50188   14.14529    1.63601
       O    -3.97230   14.82966    1.15994
      H1    -4.42063   15.65221    1.11872
       H    -6.06485   13.00575    2.99955
       O    -5.39289   12.88898    2.30361
      H1    -5.90152   12.59622    1.54531
       H    -4.56896   11.47584   -0.44696
       O    -4.56211   10.50085   -0.33308
      H1    -3.81640   10.30908    0.20263
       H    -1.63440   15.65396    1.32930
       O    -1.14507   16.32700    0.86258
      H1    -1.89473   16.70053    0.35560
       H   -10.13634   13.55353    4.12308
       O    -9.63400   13.76214    3.29009
      H1   -10.29793   13.85893    2.62755
       H   -13.69840   16.37013   -7.29785
       O   -12.89848   15.80095   -7.15998
      H1   -12.49946   16.02099   -6.29553
       H   -10.09461   12.83345   -9.52076
       O   -10.05029   12.57832   -8.52505
      H1   -10.94326   12.75938   -8.20612
       H   -13.20298   12.80842   -8.32399
       O   -12.63597   13.10017   -7.61510
      H1   -12.82001   14.07644   -7.50792
       H    -4.73786   13.31737   -1.65966
       O    -4.71359   13.14455   -0.74452
      H1    -4.32173   13.96103   -0.26766
       H   -11.13208   10.06184   -3.92990
       O   -10.44149    9.66709   -4.40273
      H1   -10.63967    8.75222   -4.16986
       H    -6.23087   17.19696    0.67463
       O    -5.37236   17.23573    1.12342
      H1    -5.02348   18.06296    0.90252
       H    -4.41497   16.40234   -1.63812
       O    -4.86247   16.13287   -2.45413
      H1    -5.57612   15.44944   -2.26648
       H    -7.03762   11.66545   -7.57517
       O    -7.69606   12.25196   -7.15149
      H1    -8.22865   12.53165   -7.92345
       H    -4.02684   19.45628   -4.82883
       O    -3.73371   18.81793   -5.48794
      H1    -4.28964   18.00933   -5.43074
       H    -8.35422   15.94566   -0.40630
       O    -7.87950   16.74600   -0.24454
      H1    -8.17471   17.09761    0.60916
       H    -2.69660   14.02508   -5.45621
       O    -2.68276   14.62540   -6.22473
      H1    -1.73419   14.86599   -6.30152
       H    -3.42743   13.14116   -3.89088
       O    -2.49799   13.38896   -3.94775
      H1    -2.08085   12.55103   -4.13633
       H    -8.11448   11.37823   -0.64496
       O    -8.59004   10.78730   -1.27165
      H1    -9.35018   10.53473   -0.71086
       H   -10.15010   10.29105    0.58923
       O   -10.87059   10.63971    0.15256
      H1   -11.55207    9.95524    0.07838
       H    -4.68484   18.54364   -9.12016
       O    -4.42766   17.64425   -8.77116
      H1    -4.80309   17.56654   -7.91045
       H    -7.97879    9.51270   -2.30021
       O    -7.80752    8.89252   -3.06738
      H1    -8.63595    8.44690   -3.09350
       H   -10.79693   12.79279   -2.93467
       O   -10.22107   13.50853   -3.27171
      H1    -9.49319   13.02937   -3.71220
       H   -12.32874   13.40871    1.23477
       O   -11.66274   14.14317    1.44464
      H1   -11.12106   14.26051    0.58530

