171
frame 5 | Written by MDAnalysis XYZWriter (release 2.4.3)
       H   -10.88766  -17.02975   -8.86127
       O   -10.26791  -16.71832   -9.53244
      H1    -9.65534  -17.45930   -9.60964
       H    -9.34872  -18.83717   -6.73395
       O    -9.20347  -19.16780   -5.84071
      H1   -10.08750  -19.45680   -5.55555
       H    -1.90918  -17.84689  -11.21929
       O    -2.53174  -17.40076  -10.66458
      H1    -2.60192  -16.50017  -10.98654
       H   -10.66809  -16.22386   -3.63764
       O   -10.45509  -15.94147   -4.53548
      H1    -9.49896  -16.08844   -4.81834
       H     3.54283  -17.14531  -10.95996
       O     3.16495  -18.07321  -10.86149
      H1     2.99107  -18.34447  -11.77840
       H     1.79440  -12.11585   -6.29309
       O     1.53656  -12.81011   -6.91335
      H1     0.75223  -13.22324   -6.52878
       H    -3.84458  -20.03980  -13.71656
       O    -4.10968  -19.09844  -13.84366
      H1    -4.65775  -18.98697  -13.06952
       H    -4.59764  -18.78505  -15.92175
       O    -4.87810  -18.40882  -16.81270
      H1    -5.27981  -19.21627  -17.23781
       H    -7.17959  -16.60754  -13.95399
       O    -7.48489  -16.95425  -13.13673
      H1    -6.76938  -17.58646  -12.89444
       H    -6.16645  -12.07679  -15.75425
       O    -6.08267  -12.98689  -15.38182
      H1    -5.29740  -13.29140  -15.80366
       H    -6.73174  -10.49128  -10.92352
       O    -6.52200   -9.69411  -11.38113
      H1    -5.60222   -9.83803  -11.53515
       H    -0.91488  -19.47771   -6.38905
       O    -0.00667  -19.21465   -6.61804
      H1    -0.01316  -18.30897   -6.90492
       H   -11.51811  -15.24524  -11.96036
       O   -11.11911  -14.52627  -11.42721
      H1   -10.49865  -14.94754  -10.81827
       H    -3.68811  -17.48384   -3.92282
       O    -2.79998  -17.67833   -4.10021
      H1    -2.45086  -16.98790   -4.64826
       H    -2.97012  -17.39190  -13.72828
       O    -2.52870  -16.53890  -13.89439
      H1    -1.86854  -16.41995  -13.22340
       H    -9.55501  -13.50301  -12.70531
       O    -8.68354  -13.03446  -12.53602
      H1    -7.97920  -13.67671  -12.20176
       H    -6.83014  -15.55290  -12.26030
       O    -6.84181  -14.73496  -11.72123
      H1    -6.05994  -14.27162  -11.97570
       H   -10.80800  -14.93281   -7.31960
       O   -10.52326  -14.07064   -7.36112
      H1   -10.12591  -13.85918   -6.48266
       H    -5.78500  -18.60333   -2.17869
       O    -6.59089  -18.80786   -1.64588
      H1    -7.06925  -17.92708   -1.68673
       H    -1.54655  -14.23796   -5.82981
       O    -0.89517  -13.58455   -5.66333
      H1    -1.28683  -12.70575   -5.60672
       H    -8.21502  -17.46963   -5.35647
       O    -7.90179  -16.58119   -5.21616
      H1    -7.40454  -16.35193   -6.03068
       H    -4.69227  -15.65746  -14.61777
       O    -5.62577  -15.77973  -14.64422
      H1    -6.02042  -15.07830  -15.15163
       H    -5.49758  -16.04151   -7.06286
       O    -6.22386  -16.57746   -7.50355
      H1    -6.73684  -15.86196   -7.95599
       H     0.42316  -15.90953  -12.65191
       O    -0.26172  -16.58773  -12.45660
      H1     0.13145  -16.93503  -11.59850
       H    -3.69326  -11.23698   -3.64102
       O    -3.51062  -11.72937   -4.44030
      H1    -4.23572  -11.75631   -5.05186
       H    -3.73957  -10.29044  -12.81060
       O    -4.06366  -10.60950  -11.96059
      H1    -3.57499  -10.08972  -11.32753
       H     2.35045  -20.21490  -13.03899
       O     1.81030  -19.40235  -13.16844
      H1     2.39787  -18.67661  -13.42028
       H    -9.88044  -19.32974   -9.48665
       O    -9.07380  -19.22980   -8.90587
      H1    -8.53817  -20.02553   -9.14833
       H    -5.61444  -18.50764  -10.97821
       O    -6.02546  -18.79691  -11.91161
      H1    -6.66407  -19.48755  -11.62499
       H    -5.41037  -13.07528  -13.57745
       O    -5.06611  -13.14059  -12.65476
      H1    -4.71142  -12.27112  -12.53211
       H    -3.08944  -13.63453  -16.50006
       O    -3.80654  -14.27871  -16.51182
      H1    -3.44933  -15.12927  -16.83569
       H     0.55370  -18.92204   -4.97515
       O     0.98185  -18.73002   -4.15361
      H1     0.31219  -18.93704   -3.42451
       H    -4.23223  -14.14360   -7.26919
       O    -4.26880  -14.79204   -6.55808
      H1    -4.54279  -14.18947   -5.82277
       H    -3.77001  -14.60367  -12.20220
       O    -3.26418  -14.70869  -11.30813
      H1    -3.66702  -14.21204  -10.57589
       H    -6.14818  -16.62185   -4.38341
       O    -5.29513  -16.61355   -3.97363
      H1    -5.12670  -15.70259   -3.97627
       H     1.61860  -14.70162  -12.07396
       O     1.61405  -14.75907  -13.02817
      H1     0.97161  -14.10131  -13.37980
       H    -0.52877  -11.69278  -10.66886
       O     0.19773  -11.33026  -10.14600
      H1     0.81331  -12.01463  -10.40181
       H    -2.67232  -15.53951   -6.42662
       O    -1.89596  -16.14947   -6.26824
      H1    -1.26458  -16.02106   -7.03495
       H    -3.46493  -12.48084   -8.39272
       O    -4.05777  -13.15573   -8.68216
      H1    -4.74823  -12.65713   -9.07607
       H    -1.19535  -11.75600   -8.13184
       O    -1.90302  -11.53638   -7.61306
      H1    -1.63204  -10.95999   -6.86269
       H    -1.62277  -17.30418  -17.09931
       O    -1.92053  -16.39531  -16.86482
      H1    -1.97718  -16.40357  -15.89153
       H     1.11135  -18.33744  -10.48598
       O     0.35797  -18.24930   -9.87615
      H1     0.08377  -19.13204   -9.67597
       H    -2.48912  -11.59593  -11.57971
       O    -1.80733  -12.31765  -11.58144
      H1    -2.32996  -13.12042  -11.43624
       H    -3.86406  -13.25502   -3.76541
       O    -3.95977  -14.20436   -3.53445
      H1    -4.07502  -14.24353   -2.54673
       H    -1.58187  -18.17819   -2.62857
       O    -1.11712  -18.56632   -1.88570
      H1    -1.63320  -19.19307   -1.42539
       H    -7.25110  -14.93261   -9.86399
       O    -7.85080  -14.86376   -9.08077
      H1    -8.73455  -15.26296   -9.27986
       H    -6.42114  -16.34812  -18.18586
       O    -6.48292  -15.88684  -17.38029
      H1    -5.94669  -16.35557  -16.68663
       H    -1.65873  -20.11122  -16.84464
       O    -1.36945  -19.31775  -17.36952
      H1    -2.08898  -19.26545  -17.99479
       H   -10.62116  -17.86873  -13.15945
       O    -9.81314  -18.36970  -13.03861
      H1    -9.21692  -17.67927  -12.72758
       H   -12.41472  -16.67694   -7.03189
       O   -11.50788  -16.84387   -6.93519
      H1   -11.29072  -16.47983   -6.03612
       H     1.27565  -16.74658   -7.24672
       O     0.38798  -16.68507   -7.72686
      H1     0.41109  -17.36557   -8.39624
       H     2.57523  -14.89038   -9.78273
       O     1.76053  -14.90314  -10.28463
      H1     1.16413  -15.22173   -9.57866
       H    -6.31604  -12.41821   -5.77942
       O    -5.77212  -11.81991   -6.29072
      H1    -6.18854  -10.98904   -6.05809
       H    -0.92216  -12.89280  -14.74027
       O    -0.40886  -12.75840  -13.91630
      H1    -1.07572  -12.65149  -13.23126
       H    -4.24321  -17.79812   -9.88511
       O    -5.02305  -18.13372   -9.46357
      H1    -5.37334  -17.49900   -8.82721
       H    -6.99733  -12.88790   -9.42465
       O    -6.84867  -11.94329   -9.58987
      H1    -7.34769  -11.49133   -8.84529
       H     3.42231  -17.98822   -9.14154
       O     3.46144  -18.27302   -8.21148
      H1     3.11694  -17.52343   -7.72964

