171
frame 2 | Written by MDAnalysis XYZWriter (release 2.4.3)
       H    -4.70537   -3.46814  -11.29291
       O    -4.41066   -4.12349  -10.65413
      H1    -3.64690   -3.76883  -10.15686
       H    -7.07264    4.50861  -18.50858
       O    -6.31353    4.49940  -17.92965
      H1    -5.56764    4.09701  -18.38570
       H     6.12965   -5.05831  -16.49830
       O     6.52772   -5.00846  -15.61416
      H1     5.92333   -4.29524  -15.25444
       H    -3.76492   -1.77808  -17.01127
       O    -2.98172   -2.28658  -16.88977
      H1    -2.87159   -2.48009  -15.88231
       H     1.45982   -5.92910  -12.19570
       O     1.45185   -5.11547  -12.74642
      H1     0.74262   -5.18800  -13.37138
       H     6.67915    0.37705  -19.47001
       O     5.79705    0.06561  -19.72896
      H1     5.19280    0.47985  -19.05911
       H     0.46073   -7.30224  -11.11112
       O    -0.26014   -6.75830  -10.63341
      H1    -0.64879   -6.31623  -11.40532
       H    -0.42002    5.59976  -13.82831
       O    -0.76660    4.75820  -14.14902
      H1    -1.09856    4.22568  -13.42415
       H     2.95676   -5.00404  -19.50355
       O     3.12905   -5.79456  -18.98058
      H1     3.50147   -6.41684  -19.62428
       H     4.00969    4.69632  -19.80298
       O     3.29168    4.65909  -19.11885
      H1     3.51309    5.49400  -18.64029
       H     5.05373   -5.67684  -18.36620
       O     5.96144   -5.86794  -18.14565
      H1     6.37889   -5.19824  -18.74724
       H     1.24817    2.75729  -14.52110
       O     1.93919    2.45036  -13.93587
      H1     1.56444    2.39009  -13.03439
       H    -2.38518   -2.74049  -13.42994
       O    -2.03400   -3.07258  -14.31069
      H1    -1.58888   -3.96430  -14.15889
       H     0.38755    3.69875  -18.06925
       O     0.35080    4.21116  -18.95928
      H1     1.30797    4.37603  -19.11369
       H    -0.06484    1.47157  -11.94700
       O     0.71714    2.05101  -11.69747
      H1     0.39368    2.95012  -11.49467
       H     5.49955   -1.00204  -10.33597
       O     6.12232   -0.77976  -11.05434
      H1     5.60678   -0.27438  -11.71231
       H     6.54482    2.44565  -12.96163
       O     6.64204    1.70588  -13.57860
      H1     7.35027    1.14017  -13.31838
       H    -5.65712    2.08646  -19.32387
       O    -4.77373    2.26368  -19.00019
      H1    -4.85558    2.30198  -18.00442
       H     1.31091   -1.99410  -15.80240
       O     1.75331   -2.20656  -16.66068
      H1     2.32855   -1.41883  -16.74812
       H    -3.79554    5.22904  -19.33112
       O    -3.49368    4.53068  -18.81181
      H1    -3.94413    3.71235  -19.14552
       H     4.14133   -3.01421  -13.84904
       O     4.93060   -3.07565  -14.37704
      H1     5.24232   -2.26333  -14.75647
       H     2.79315   -2.26794  -12.10234
       O     2.68986   -2.81285  -12.89638
      H1     2.16907   -3.59935  -12.62597
       H    -3.88065   -5.57888  -17.53311
       O    -4.32835   -4.81768  -17.15615
      H1    -3.72535   -4.13200  -16.86874
       H    -0.41182   -0.32128  -13.54953
       O    -1.03250    0.40003  -13.14634
      H1    -1.77131   -0.09997  -12.78377
       H    -4.99135   -1.08654  -18.97295
       O    -4.83023   -0.49921  -18.26637
      H1    -4.53655    0.30382  -18.66593
       H     3.46985    0.74533  -11.83567
       O     3.37687   -0.13057  -12.22760
      H1     3.67199   -0.02762  -13.14527
       H     5.86079   -0.46235  -16.63009
       O     6.25380   -1.13314  -16.04571
      H1     6.90272   -1.64462  -16.53329
       H    -3.82069   -7.46169  -14.41091
       O    -3.43649   -8.32775  -14.34363
      H1    -2.52450   -8.10192  -14.02551
       H    -5.97126    0.26379  -16.73655
       O    -6.65475    0.20729  -16.07570
      H1    -6.76062    1.09189  -15.70184
       H     5.10539    1.33946  -14.46055
       O     4.26004    0.99949  -14.72204
      H1     3.50874    1.49252  -14.46750
       H    -4.20454   -1.49205  -12.77399
       O    -3.40956   -1.34992  -12.23851
      H1    -3.75976   -0.87147  -11.53180
       H    -0.43581    2.62267  -15.96213
       O     0.30333    3.13426  -16.25714
      H1     0.24442    4.00223  -15.77001
       H     1.12527   -2.36044  -13.77510
       O     0.44609   -1.84898  -14.25928
      H1    -0.34211   -2.47630  -14.21135
       H    -2.40413    6.04110  -16.08294
       O    -2.97322    5.37577  -15.63802
      H1    -2.35398    4.93191  -15.00922
       H    -1.58207    0.01099   -9.00074
       O    -1.71535   -0.57123   -9.75748
      H1    -1.83911   -1.45615   -9.34697
       H    -1.31910    0.35979  -16.10713
       O    -1.53443    1.23396  -15.63770
      H1    -1.44405    0.89445  -14.72933
       H    -2.99838    2.05885  -16.07935
       O    -3.80579    2.54444  -16.43567
      H1    -3.54810    3.47433  -16.44754
       H     0.11016   -1.16200  -17.33058
       O    -0.76536   -0.75114  -17.27222
      H1    -1.58375   -1.39784  -17.21213
       H    -3.50144   -5.37660  -11.55344
       O    -2.90391   -5.77342  -12.21196
      H1    -3.24610   -5.44598  -13.08967
       H     8.81115   -2.38730  -17.80676
       O     7.97091   -2.78852  -17.37688
      H1     8.32147   -3.53262  -16.86566
       H    -4.36376   -5.46324  -15.58013
       O    -4.32995   -5.76449  -14.61292
      H1    -5.27774   -5.91523  -14.44680
       H     7.15167    3.74444  -18.13300
       O     6.27916    3.38018  -18.45575
      H1     5.67319    4.09409  -18.15929
       H     2.80288   -8.65758  -15.96148
       O     3.39450   -9.41732  -16.30732
      H1     3.98575   -9.69665  -15.59816
       H     2.37438   -6.27891  -13.96313
       O     2.47711   -6.71057  -14.79395
      H1     2.94366   -6.05439  -15.33920
       H    -2.20837    6.20775  -18.88675
       O    -1.31027    6.44414  -19.18880
      H1    -0.77731    5.60664  -19.06878
       H     0.28670   -1.08766   -9.96760
       O     1.18969   -1.31893   -9.95789
      H1     1.75448   -0.53828   -9.77649
       H    -6.18709   -2.77404  -14.29615
       O    -5.47800   -2.56537  -13.63658
      H1    -5.03140   -3.39400  -13.78321
       H    -5.98046   -5.05499  -18.23246
       O    -6.51725   -5.54191  -18.92836
      H1    -5.86407   -6.07598  -19.40819
       H     4.55073    1.18409  -16.48849
       O     4.75900    1.19217  -17.45007
      H1     5.19952    2.02862  -17.57757
       H     0.34153   -7.02204  -19.01932
       O     0.42813   -6.08252  -18.81965
      H1     1.39571   -6.12882  -18.66563
       H    -0.17564   -3.62355  -17.12909
       O    -0.72219   -4.40583  -17.02564
      H1    -0.36068   -4.98602  -17.70746
       H     6.85680   -1.93448  -12.00076
       O     7.15084   -2.75035  -12.53734
      H1     6.35363   -3.03066  -13.10380
       H     3.34824   -3.48412  -16.69014
       O     4.22076   -3.77180  -17.03250
      H1     4.82193   -3.79330  -16.28737
       H    -3.33009   -8.13926  -18.33460
       O    -3.16526   -7.20813  -18.38333
      H1    -2.49364   -7.13356  -19.06016
       H    -0.49474   -6.43978  -14.18362
       O    -0.66312   -5.52136  -14.34056
      H1    -0.42924   -5.39419  -15.28695
       H     2.79127    4.43539  -13.74840
       O     3.04522    5.39377  -13.63121
      H1     3.80762    5.51117  -14.23222
       H     7.34811   -3.42901  -18.81467
       O     7.22097   -4.04030  -19.55689
      H1     6.51510   -3.67563  -20.08630

