171
frame 11 | Written by MDAnalysis XYZWriter (release 2.4.3)
       H    -5.46360  -16.48100   11.50023
       O    -4.97400  -16.51625   10.66126
      H1    -4.90903  -17.46138   10.39843
       H    -2.49994  -17.07145   16.12812
       O    -2.63568  -17.64769   15.34126
      H1    -2.55027  -18.59181   15.67043
       H   -12.89018  -12.01171   12.35513
       O   -12.90959  -12.91246   11.92830
      H1   -13.54750  -13.42246   12.37986
       H    -5.32221  -16.95393   13.34800
       O    -5.64200  -16.07988   13.40485
      H1    -4.88984  -15.48466   13.38461
       H    -6.77057  -18.16515   18.79773
       O    -7.52011  -17.53009   19.09766
      H1    -7.64372  -16.89630   18.36778
       H    -5.50864  -16.50673    6.36820
       O    -5.91015  -17.20487    5.86951
      H1    -5.50285  -17.15480    4.97478
       H    -8.36338  -17.88158    3.92725
       O    -7.57952  -18.39224    3.69738
      H1    -7.71341  -19.24197    4.17926
       H    -9.49405  -12.26284    7.48121
       O    -9.54127  -12.37966    6.53613
      H1   -10.51123  -12.57585    6.41382
       H    -8.91249  -15.22806   17.86049
       O    -7.90740  -15.34684   17.77624
      H1    -7.63088  -14.59877   17.28211
       H    -9.69469  -11.99856   10.00349
       O    -8.92750  -11.48414    9.79735
      H1    -8.23240  -12.13763    9.73996
       H    -7.97366  -10.86963   11.60239
       O    -7.53687  -10.94455   12.46170
      H1    -6.58850  -10.80985   12.22784
       H    -5.18763  -19.21203   13.89924
       O    -5.26604  -18.84830   12.99360
      H1    -6.14330  -19.19241   12.61610
       H    -8.08155  -12.71112   13.32726
       O    -8.75230  -13.30888   13.82228
      H1    -9.33895  -12.71486   14.31320
       H    -4.80689  -14.55657   18.10437
       O    -4.57356  -15.43818   18.39642
      H1    -5.08309  -15.60305   19.20588
       H    -8.06663  -16.30771    7.04053
       O    -9.00207  -16.67530    6.97990
      H1    -9.38856  -16.17175    7.69296
       H    -1.32170  -15.95755   18.20404
       O    -1.97444  -15.89447   17.51352
      H1    -2.83127  -15.64282   17.97231
       H   -13.18100  -19.73532    5.65987
       O   -12.71560  -19.08207    6.16128
      H1   -12.00819  -18.73605    5.64105
       H   -11.74783  -13.82064   15.74468
       O   -12.40433  -14.21119   16.33432
      H1   -11.99896  -14.58718   17.10041
       H    -1.87694  -15.51915    9.14814
       O    -1.86870  -14.73624    8.57511
      H1    -2.54729  -14.54416    7.87029
       H    -4.12964  -13.16421   12.24060
       O    -4.07410  -14.14746   12.37825
      H1    -3.93877  -14.40975   11.44280
       H   -11.99081  -16.12136   10.85027
       O   -12.53004  -16.47986   11.60557
      H1   -12.15975  -16.07032   12.38196
       H   -10.63826  -17.74911    4.45533
       O   -10.29570  -18.19563    5.23521
      H1   -10.00607  -17.39599    5.79318
       H    -1.27644  -17.64226    8.94571
       O    -1.59902  -17.30605    9.78910
      H1    -1.24549  -17.73398   10.55103
       H    -7.87863  -16.42213   16.12041
       O    -7.92782  -16.73632   15.17277
      H1    -6.99475  -16.75822   14.87931
       H    -6.15591  -17.50159    3.21092
       O    -5.34107  -16.95626    3.07395
      H1    -5.51436  -16.05365    3.21713
       H    -8.58645  -16.58784   10.79726
       O    -9.08591  -17.38881   10.82098
      H1    -8.88467  -17.91310   10.05447
       H   -13.22301  -18.00829    7.58602
       O   -13.49427  -17.36104    8.26029
      H1   -13.98012  -17.95100    8.93303
       H    -5.40957  -18.42245   17.44800
       O    -5.28449  -18.95801   18.24063
      H1    -4.55864  -18.58130   18.77466
       H    -2.47607  -17.44088    4.55209
       O    -2.80624  -18.08017    5.13853
      H1    -2.15803  -18.10668    5.85837
       H    -3.93324  -18.89951    8.82505
       O    -3.88111  -18.91609    9.78892
      H1    -3.07683  -18.40907    9.97369
       H    -3.67241  -12.95075    7.16649
       O    -3.69996  -13.85153    6.74415
      H1    -4.36254  -14.33819    7.21590
       H    -7.66157  -14.71438    3.67105
       O    -7.00203  -14.85538    4.32793
      H1    -7.10092  -15.69979    4.72104
       H   -10.18201  -14.62280   13.48202
       O   -10.67796  -15.41636   13.48411
      H1   -10.08769  -16.06712   14.04447
       H    -9.14968  -19.44189    8.64336
       O    -8.42817  -18.78511    8.60301
      H1    -8.71469  -18.17944    7.88557
       H    -1.19914  -13.74735   14.25813
       O    -2.06319  -13.35200   14.09914
      H1    -2.51609  -13.73069   13.33941
       H    -0.66455  -18.79877   12.85605
       O    -1.22370  -18.02555   12.54603
      H1    -1.77337  -17.83879   13.31325
       H   -10.31716  -17.41560   16.76977
       O   -10.21419  -18.13835   16.11663
      H1    -9.52826  -17.78553   15.50069
       H    -0.50112  -14.76455    7.37447
       O     0.16497  -14.68031    6.66958
      H1    -0.10340  -13.83137    6.24387
       H   -11.10570  -14.37414    9.56548
       O   -11.08608  -13.50695    9.93835
      H1   -11.78839  -13.46551   10.59168
       H    -9.17173  -14.39485   10.92668
       O    -8.27984  -14.67570   11.00887
      H1    -7.98259  -14.33151   11.83068
       H   -13.05625  -17.55524   15.05974
       O   -12.60100  -18.35035   15.20548
      H1   -11.70537  -18.22993   15.49444
       H    -0.31908  -17.89769    6.86297
       O    -1.08503  -18.13066    7.37325
      H1    -0.99050  -19.04741    7.59897
       H   -15.64157  -18.53186    9.13862
       O   -15.04666  -18.60923    9.89397
      H1   -15.15792  -19.44498   10.32269
       H    -7.05588  -19.86369   10.89840
       O    -7.44843  -19.46389   11.74171
      H1    -8.08862  -18.82751   11.32261
       H   -14.64658  -16.14812    8.09507
       O   -15.24920  -15.44722    7.68888
      H1   -15.01798  -14.65523    8.15409
       H    -6.00073  -14.42696    8.40206
       O    -5.73431  -15.28900    8.10811
      H1    -5.47772  -15.62890    8.96695
       H    -2.66450  -13.94775    3.59797
       O    -2.22956  -14.35018    4.41419
      H1    -2.90864  -14.16043    5.12784
       H    -6.41986  -12.97190   16.36417
       O    -7.39712  -13.04305   16.29106
      H1    -7.53084  -13.28798   15.37870
       H    -6.67050  -12.77160    5.33332
       O    -6.96444  -12.32210    6.11446
      H1    -7.89050  -12.61040    6.19296
       H   -10.44479  -16.82163    9.77672
       O   -11.04212  -16.22434    9.24159
      H1   -11.68904  -16.72643    8.73184
       H    -5.35925  -16.50445   16.83963
       O    -5.31020  -17.26822   16.20404
      H1    -4.37927  -17.28804   15.90674
       H    -5.45483  -12.31825    9.00363
       O    -6.35834  -12.62485    8.83642
      H1    -6.50726  -12.39414    7.89688
       H    -4.61968  -18.74245    6.58758
       O    -4.56173  -19.45258    7.24953
      H1    -3.85341  -20.04532    6.90325
       H   -12.62907  -18.75669   13.35179
       O   -12.46504  -19.17540   12.45985
      H1   -12.37374  -18.39028   11.96278
       H     0.35363  -16.75130   13.85748
       O     0.25154  -16.77214   14.82338
      H1    -0.67804  -16.91805   14.89425
       H    -2.82154  -11.35967    8.37011
       O    -3.73231  -11.62013    8.42433
      H1    -4.20496  -10.92576    8.01604
       H   -13.60247  -15.48108   15.62647
       O   -14.21516  -16.06046   15.12589
      H1   -14.92785  -16.27092   15.76302

