171
frame 2 | Written by MDAnalysis XYZWriter (release 2.4.3)
       H    -1.21098   15.31251   -2.61605
       O    -1.88382   15.18381   -1.93549
      H1    -2.41604   15.99540   -1.93207
       H     1.26357   10.23668   -2.06300
       O     1.70408    9.37291   -2.22049
      H1     2.29088    9.32153   -1.48350
       H     1.02245   13.45609   -7.13828
       O     1.84795   13.04758   -6.94913
      H1     2.48035   13.77314   -6.67255
       H    -5.82173   10.05231   -7.59236
       O    -6.30980    9.57613   -6.91802
      H1    -6.89358    9.01138   -7.41069
       H     2.20365    8.53652   -4.00894
       O     1.88801    8.15372   -4.82170
      H1     1.13095    8.69858   -5.06709
       H     2.16368   14.34023  -10.72571
       O     2.51421   14.76928   -9.93805
      H1     1.77068   15.02089   -9.40555
       H    -0.97703    4.61070   -8.11133
       O    -0.44475    5.36313   -7.84656
      H1    -0.27755    5.97339   -8.64178
       H     3.34828   12.51558  -11.35132
       O     3.71293   11.97182  -10.60962
      H1     2.90596   11.96836  -10.07329
       H    -3.54753    9.60931    0.29694
       O    -3.83725    8.69815    0.12183
      H1    -4.01607    8.70549   -0.83511
       H     8.02536   10.30481   -5.56361
       O     7.38807   10.55150   -4.88453
      H1     6.63312    9.99116   -5.01677
       H    -2.53101    7.41947   -6.84464
       O    -2.74735    8.34104   -6.77568
      H1    -3.48064    8.56512   -7.36749
       H    -3.40662    9.21955   -5.22574
       O    -3.70137    9.90021   -4.65586
      H1    -4.25112    9.36466   -4.04640
       H     4.48532    6.46203   -5.15480
       O     4.52490    6.95470   -6.00517
      H1     3.57925    6.91047   -6.18321
       H    -4.65153    5.99243   -2.88798
       O    -5.03911    6.16507   -2.01729
      H1    -4.73832    5.47480   -1.46395
       H     0.55632   12.79837   -1.09560
       O     1.11222   12.07726   -1.47133
      H1     1.94346   12.50419   -1.68220
       H     0.53447    7.45857   -9.90019
       O     0.09284    6.59661  -10.06192
      H1     0.82900    5.99978  -10.30765
       H    -0.39056    6.15005   -2.22479
       O    -0.35802    5.19379   -2.06773
      H1    -0.71494    4.96122   -1.22698
       H     3.36284    5.13612   -3.72047
       O     3.45906    4.81741   -4.68635
      H1     2.53528    4.96566   -5.01015
       H    -3.88977    9.68264   -9.31456
       O    -4.23160   10.40566   -8.83472
      H1    -3.52184   11.09435   -8.68404
       H     0.17589    5.59982   -6.05140
       O     1.05965    5.71403   -5.63898
      H1     0.89807    6.61075   -5.39044
       H     1.37515    4.40446   -2.01492
       O     2.06662    3.76216   -1.90430
      H1     1.98591    3.59327   -0.95698
       H     2.53938    4.77813   -9.96223
       O     2.08830    4.71314  -10.81687
      H1     2.67100    5.16043  -11.42612
       H    -1.08225   12.70257   -6.16449
       O    -1.10301   13.18181   -7.00083
      H1    -1.91242   12.89822   -7.51086
       H    -2.41114   11.02560   -2.13221
       O    -1.85905   10.47626   -2.68567
      H1    -2.50781   10.27592   -3.35409
       H     2.67945    7.28120    0.08218
       O     3.17047    7.96264   -0.43961
      H1     3.28454    7.53093   -1.29292
       H     0.11011   11.75103  -10.27367
       O    -0.75503   11.86155  -10.66194
      H1    -0.52991   12.31013  -11.49470
       H    -4.70325   11.64502   -4.81051
       O    -5.14992   12.48540   -4.44512
      H1    -6.09568   12.46035   -4.64403
       H     0.32178    6.38446  -12.13480
       O     0.55004    6.87693  -12.86914
      H1     1.41053    6.50738  -13.16526
       H     2.67752   12.11240   -5.06146
       O     3.27646   11.42744   -4.72893
      H1     2.67578   10.94147   -4.16745
       H     1.62272   10.72514   -9.13640
       O     1.55362   11.65744   -9.22068
      H1     1.61570   12.09310   -8.35655
       H    -4.23855    5.46408   -5.44904
       O    -3.30578    5.48255   -5.69656
      H1    -2.77860    5.04341   -5.04016
       H    -2.36853    7.39003  -10.34336
       O    -3.03446    8.13460  -10.35111
      H1    -2.53209    8.85104  -10.72104
       H    -0.20159   10.24841   -5.56529
       O    -0.17146    9.42736   -6.08512
      H1    -1.02546    9.18913   -6.39834
       H     5.83547    6.90004   -7.33931
       O     6.74856    7.05434   -7.67883
      H1     6.69447    7.98809   -7.97010
       H     5.31080   10.32610   -8.45643
       O     5.48048   10.35457   -7.52333
      H1     5.11386    9.57200   -7.08305
       H     4.84120    6.92123   -2.36677
       O     3.91457    7.01754   -2.68013
      H1     4.10307    7.70202   -3.29795
       H    -1.55220    8.60851    1.19566
       O    -1.16746    7.74068    0.95021
      H1    -0.93871    7.88907    0.02289
       H    -4.30012   12.10989   -2.61886
       O    -3.94665   12.26302   -1.73280
      H1    -3.59680   13.14895   -1.83397
       H     4.40235    7.69986  -10.18551
       O     3.99625    7.70421   -9.30640
      H1     3.72316    6.80282   -9.22162
       H     0.98755   15.84905   -3.20499
       O     0.31039   15.22949   -3.61859
      H1     0.17347   15.47170   -4.56210
       H     4.82560    8.43282   -5.18685
       O     4.95035    9.15809   -4.58840
      H1     4.36815    9.88201   -4.85555
       H     4.10825   15.01485   -5.46067
       O     3.83527   14.86350   -6.36316
      H1     4.51567   14.25301   -6.70259
       H    -1.19053   16.28534   -5.93468
       O    -0.47268   15.75558   -6.40397
      H1    -0.89484   14.87057   -6.61621
       H     6.22190   13.35672   -8.40349
       O     5.81223   13.23532   -7.51342
      H1     5.54902   12.32511   -7.55391
       H    -0.98903    9.86340  -13.43877
       O    -1.46218    9.69015  -12.53073
      H1    -1.25567   10.49417  -12.08634
       H     0.11070   12.64320   -4.25947
       O    -0.47595   11.94609   -4.47651
      H1    -0.73907   11.54305   -3.66155
       H    -4.05241   13.74626   -4.91679
       O    -3.47418   14.57782   -4.82113
      H1    -3.11241   14.53840   -3.93996
       H     3.56333   14.22933   -1.56079
       O     3.39854   13.54167   -2.22854
      H1     4.16587   12.95629   -2.24789
       H    -3.26184    4.07130   -7.15312
       O    -2.89454    3.53097   -7.84565
      H1    -3.53963    3.06809   -8.44012
       H     2.43811    9.83387  -11.68415
       O     2.44769    9.37359  -12.54000
      H1     1.81073    8.69810  -12.44490
       H    -5.99450    9.04461   -3.24315
       O    -5.16762    8.83187   -2.78014
      H1    -5.17671    7.97051   -2.36746
       H     1.41026    8.61731   -8.46127
       O     1.48034    8.99009   -9.33305
      H1     2.37948    8.71166   -9.53370
       H    -2.02770   12.87327   -9.41113
       O    -2.80514   12.67674   -8.89803
      H1    -3.27773   13.49081   -8.80445
       H     3.37450    4.49345   -7.76466
       O     2.86149    5.14289   -8.25952
      H1     2.00573    5.04353   -7.84156
       H    -1.45391    3.19283   -4.08924
       O    -1.88090    3.99551   -3.84454
      H1    -1.39054    4.48591   -3.15593
       H     0.26204    8.56798   -2.12343
       O    -0.50421    8.01623   -1.97868
      H1    -1.24660    8.55848   -2.15348
       H    -7.86906    8.73635   -4.42025
       O    -7.25569    9.54396   -4.42114
      H1    -6.78664    9.56212   -5.28245

