171
frame 9 | Written by MDAnalysis XYZWriter (release 2.4.3)
       H    -4.76678   -3.07210  -11.80925
       O    -4.11796   -3.55754  -11.29535
      H1    -3.26950   -3.19237  -11.56189
       H   -11.49674   -1.63113   -9.93302
       O   -11.00447   -0.75257  -10.03872
      H1   -10.72478   -0.65600  -10.97220
       H    -4.66907   -2.41065   -6.28206
       O    -4.26943   -1.79703   -6.82948
      H1    -4.72993   -1.94208   -7.66453
       H    -8.66014   -4.78983  -15.60830
       O    -8.77185   -5.43685  -16.34906
      H1    -9.74233   -5.33633  -16.46565
       H    -8.82144   -0.10670   -7.96440
       O    -8.91528   -0.90223   -8.52939
      H1    -9.69332   -0.87572   -9.04976
       H    -6.51814   -5.73339  -19.93137
       O    -6.60587   -6.42304  -19.27506
      H1    -5.67254   -6.75630  -19.10135
       H    -6.32599    0.54780  -14.67433
       O    -5.37511    0.57813  -14.62831
      H1    -5.16745    1.43800  -14.21739
       H    -3.36297   -3.08256  -17.65655
       O    -3.10002   -3.36127  -16.77157
      H1    -3.00094   -2.54104  -16.30581
       H    -1.61829   -6.33461   -9.26550
       O    -2.44742   -6.76468   -9.60221
      H1    -3.18280   -6.12854   -9.67382
       H   -12.63433   -5.46654  -11.68389
       O   -12.13660   -5.50066  -10.82522
      H1   -12.22582   -4.61963  -10.42662
       H    -8.57763   -3.49175  -18.29555
       O    -9.43436   -3.57999  -18.73813
      H1    -9.29083   -4.28647  -19.33594
       H    -7.37986   -6.77099   -9.76152
       O    -8.03521   -7.49328   -9.90630
      H1    -8.63533   -7.08848  -10.52759
       H    -2.46117   -0.45915  -14.84576
       O    -2.83024   -1.29842  -14.62743
      H1    -3.62941   -1.20143  -14.08242
       H    -4.81203   -8.95831  -11.65384
       O    -4.90770   -9.74944  -11.10394
      H1    -5.10724   -9.40712  -10.18168
       H   -13.18434   -1.01607  -12.91653
       O   -12.31781   -1.35263  -13.15785
      H1   -11.73224   -0.60077  -13.01211
       H    -6.73234    0.67384  -11.28967
       O    -6.94406   -0.24902  -11.29691
      H1    -7.64971   -0.20814  -10.65196
       H    -6.18494   -3.40797  -16.73069
       O    -6.54100   -3.02849  -17.52580
      H1    -5.86757   -3.25597  -18.13338
       H    -9.80845    3.38294  -11.47192
       O    -9.19569    2.61098  -11.44372
      H1    -8.52471    2.74363  -12.11219
       H    -9.79887   -6.75950  -12.81699
       O    -9.49931   -6.60792  -11.87469
      H1   -10.30515   -6.40351  -11.34106
       H    -8.71307    2.86796   -9.62268
       O    -8.51317    3.13113   -8.72204
      H1    -8.33124    2.39582   -8.10264
       H    -6.84144   -2.57367  -13.36285
       O    -5.91935   -2.32933  -13.17472
      H1    -6.04046   -1.51030  -12.64447
       H    -9.13782  -10.03956  -12.55341
       O    -9.92698   -9.46870  -12.35431
      H1    -9.48982   -8.60593  -12.18578
       H   -11.67642   -3.12264  -13.67551
       O   -11.22653   -3.81139  -14.16401
      H1   -11.65701   -3.86244  -15.04620
       H    -9.19932    0.73234  -15.28404
       O    -8.69590    0.02155  -14.86380
      H1    -9.14691   -0.72017  -15.20548
       H    -9.57998   -5.68467   -8.55084
       O    -9.95280   -6.04565   -7.75407
      H1    -9.91774   -7.04492   -7.87525
       H    -1.94113   -6.60088  -16.60441
       O    -2.10319   -5.90697  -17.28441
      H1    -2.28429   -5.03709  -16.87528
       H    -9.58639    3.69578  -18.11703
       O    -9.02553    2.95616  -17.80892
      H1    -9.58739    2.34289  -17.25644
       H    -5.40456   -7.69827  -16.26159
       O    -6.34961   -7.53968  -16.23332
      H1    -6.40245   -6.68424  -16.72387
       H    -5.83904   -1.31352  -17.31056
       O    -5.09764   -0.73340  -17.18772
      H1    -5.01684   -0.47726  -16.27657
       H    -5.80712   -5.30789   -8.42443
       O    -6.05424   -5.27674   -7.45671
      H1    -5.56492   -6.00985   -7.03373
       H    -4.59376    3.28648  -18.44503
       O    -4.56749    2.40476  -18.05833
      H1    -5.22561    1.84030  -18.61197
       H    -1.45471    1.52216  -12.31292
       O    -0.76049    1.34612  -12.98013
      H1    -0.33695    0.51928  -12.70332
       H   -10.40091   -7.36552  -15.24664
       O    -9.55755   -7.39108  -14.74538
      H1    -9.07736   -6.70293  -15.22016
       H     1.15116   -0.52046  -12.13377
       O     0.69428   -1.03719  -12.82385
      H1    -0.02605   -1.49944  -12.40824
       H    -9.67581   -0.00155  -13.33973
       O   -10.19017    0.26952  -12.57058
      H1   -10.00279    1.22756  -12.57527
       H   -11.66320   -3.29704   -8.44707
       O   -12.23650   -3.17345   -9.24161
      H1   -13.09232   -3.42103   -8.90765
       H    -2.52002    1.42119  -10.15104
       O    -2.51106    2.01013  -10.94999
      H1    -3.46192    2.17497  -11.16189
       H    -2.42714    0.51811   -8.21162
       O    -2.39432    0.02213   -9.04044
      H1    -3.23157   -0.47033   -9.17591
       H    -0.22395    0.23504  -15.73600
       O    -1.09301    0.53881  -15.47969
      H1    -0.96994    0.89966  -14.59971
       H    -2.12873    0.78181  -17.15252
       O    -2.22474    1.28436  -17.96540
      H1    -3.16610    1.56348  -18.05152
       H    -4.81008   -4.91823  -10.55011
       O    -5.30124   -5.68782  -10.26433
      H1    -5.43001   -6.17389  -11.10868
       H   -12.45653   -4.03081  -17.54711
       O   -11.60802   -3.98917  -17.11919
      H1   -10.90906   -3.89937  -17.84072
       H    -8.62905   -3.31446   -6.32347
       O    -9.23345   -2.57215   -6.26964
      H1    -9.04039   -2.04221   -7.01048
       H   -11.39446   -1.98713  -16.81420
       O   -11.23165   -1.11166  -16.46774
      H1   -12.14723   -0.77763  -16.27418
       H    -3.69370   -6.92662  -13.24074
       O    -4.54567   -7.05622  -12.80847
      H1    -5.27616   -6.59684  -13.33936
       H    -6.03304    0.00564  -18.84151
       O    -5.96565    0.42763  -19.67752
      H1    -6.86309    0.73663  -19.87470
       H    -1.31572   -2.51663  -10.79918
       O    -1.60956   -2.58695  -11.74127
      H1    -1.26688   -3.47321  -12.14826
       H    -9.24389   -3.76004  -13.78646
       O    -8.32517   -3.70846  -14.01858
      H1    -7.93935   -4.50190  -13.62296
       H   -11.63747    2.23765  -16.21681
       O   -10.87897    1.67113  -16.33644
      H1   -11.16727    0.82285  -16.59805
       H    -5.54452   -0.98155  -10.25719
       O    -4.88018   -1.30272   -9.65467
      H1    -4.52402   -2.10558  -10.06464
       H    -5.26536   -3.29351  -14.56916
       O    -5.43790   -3.96569  -15.36979
      H1    -4.64054   -3.89780  -15.90323
       H    -3.50694   -6.69914  -18.15647
       O    -4.19650   -7.36789  -18.42613
      H1    -3.78688   -7.79785  -19.21188
       H    -6.18820   -5.09852  -14.40966
       O    -6.70793   -5.75216  -13.84689
      H1    -6.82686   -6.45240  -14.55473
       H    -5.11881   -7.89329   -9.31391
       O    -5.19084   -8.54578   -8.61733
      H1    -4.60882   -8.28006   -7.90772
       H    -5.87896    2.91369  -10.67638
       O    -5.83919    2.23703  -11.37563
      H1    -6.16255    2.73837  -12.16660
       H    -0.65970   -5.55844  -13.33069
       O    -0.46499   -4.62392  -13.15536
      H1     0.39101   -4.37963  -13.44044
       H    -7.36239    3.81854  -14.14132
       O    -7.14424    3.77972  -13.22096
      H1    -6.54751    4.58557  -13.08644

