171
frame 7 | Written by MDAnalysis XYZWriter (release 2.4.3)
       H     7.87347   -0.82570    0.11050
       O     8.27423   -1.72705    0.01850
      H1     9.08249   -1.69153    0.61148
       H     7.06583    0.12387    2.49690
       O     7.08838   -0.67320    3.03890
      H1     6.95821   -1.41374    2.42150
       H     4.92181   -7.19996    2.87614
       O     5.19201   -6.64778    2.11811
      H1     4.57061   -6.98997    1.46918
       H     0.69949   -8.58795    1.87067
       O     0.64156   -8.40673    0.91795
      H1     1.48587   -7.95478    0.67285
       H     8.97916   -8.84186    6.57844
       O     8.19743   -8.80189    5.96353
      H1     8.46397   -8.31735    5.23735
       H     4.29976   -7.76047    6.15591
       O     4.38981   -6.96192    6.73346
      H1     4.49036   -6.32790    6.02602
       H     7.28249   -2.75498    0.93915
       O     6.92198   -3.20677    1.69327
      H1     6.03892   -3.50550    1.52031
       H     5.49309   -7.82024    7.84390
       O     6.22298   -8.02506    8.41318
      H1     6.98408   -8.25702    7.84471
       H    -1.21129   -6.01671    5.97530
       O    -0.52726   -6.66564    6.19263
      H1    -1.04958   -7.39097    6.55477
       H     1.73595   -6.80959    3.84245
       O     1.05660   -7.42934    3.54096
      H1     0.80747   -7.81662    4.36604
       H     4.88061   -3.84523    8.48804
       O     5.47694   -3.86190    9.28786
      H1     5.08393   -4.53558    9.82061
       H    -0.58383   -5.14300    0.94336
       O    -0.60079   -4.49468    0.24792
      H1     0.24600   -4.54591   -0.19004
       H     2.67321   -2.89365    7.48360
       O     3.28277   -3.61129    7.25510
      H1     2.72870   -4.35573    7.59332
       H     6.66059   -6.33957    1.19881
       O     7.29326   -5.93956    0.57473
      H1     7.29855   -4.95936    0.70482
       H     9.34949   -4.03157    4.13660
       O    10.30184   -3.96518    4.03031
      H1    10.42506   -4.37730    3.19998
       H     4.60781   -0.80342    5.80516
       O     3.78366   -0.22613    5.76600
      H1     4.01650    0.60485    6.25618
       H     0.26175   -2.20663    2.74310
       O     1.00656   -2.26154    3.41217
      H1     0.78508   -1.65393    4.10640
       H     4.59257  -10.63956    2.06299
       O     5.52204  -10.97580    1.97703
      H1     6.10579  -10.21707    1.88684
       H     2.81070  -10.66048    3.50194
       O     3.05301   -9.91763    2.95076
      H1     2.40552   -9.15335    3.00775
       H     1.85413   -2.10855   -0.66988
       O     2.42903   -2.84007   -0.98652
      H1     2.39376   -2.58569   -1.90792
       H     1.96931   -4.41348   -1.38815
       O     1.94694   -5.37584   -1.46243
      H1     1.50998   -5.61914   -2.28645
       H     3.74883   -4.35682    5.27117
       O     4.23181   -4.86164    4.67772
      H1     3.71874   -4.86894    3.81897
       H     9.57875   -2.24195    4.25129
       O     9.57224   -1.22713    4.14151
      H1     8.64292   -1.03112    3.85288
       H     3.33229   -4.44211    1.50991
       O     2.73116   -4.75129    2.20277
      H1     2.08577   -4.02024    2.32650
       H     8.42729   -8.73029    1.07227
       O     7.81462   -9.38199    1.28590
      H1     7.76803   -9.99693    0.50464
       H    -0.30176   -3.61406    7.34086
       O    -1.12819   -3.13218    7.19951
      H1    -0.84496   -2.32608    6.66110
       H     9.96766   -7.49530    4.41712
       O     9.17621   -7.38211    3.87749
      H1     9.47756   -7.25541    2.99379
       H     7.09270   -4.64189    9.29260
       O     7.64390   -5.49634    9.27796
      H1     7.03088   -6.22149    9.07339
       H     3.26858   -0.52523   10.19571
       O     3.28037   -1.47730   10.27311
      H1     4.00195   -1.74375    9.69634
       H     7.19127  -10.28978    5.45293
       O     6.66734  -11.05829    5.15565
      H1     6.75815  -11.16611    4.21327
       H     3.42173   -0.85943    3.85932
       O     3.39111   -0.62754    2.94207
      H1     2.49997   -0.97755    2.72509
       H     6.49640    0.54933    5.74688
       O     6.72241    1.46698    6.04411
      H1     7.24342    1.23876    6.80869
       H    -2.01770   -7.05147   -1.46522
       O    -1.33414   -7.69547   -1.10929
      H1    -0.78156   -7.17854   -0.59262
       H     2.68906   -5.82899   10.68942
       O     1.74265   -5.84642   10.36349
      H1     1.18940   -5.17630   10.83986
       H     7.11647   -5.18151    3.47566
       O     7.71716   -5.07784    4.23482
      H1     8.31860   -5.78798    4.26008
       H     0.87738   -0.70148    6.39119
       O     0.19307   -0.68247    5.68135
      H1    -0.20128    0.17388    5.49925
       H     3.07937   -7.64406    7.75216
       O     2.77974   -8.23033    8.45686
      H1     1.86645   -8.09434    8.66420
       H     9.96085   -0.77493    6.70640
       O     9.10878   -0.39535    6.75593
      H1     8.68599   -0.85735    6.01297
       H     2.85411   -0.85062    7.19483
       O     2.04452   -1.12577    7.63693
      H1     2.26667   -1.01346    8.56075
       H     6.84786   -2.10870    5.88501
       O     6.46126   -1.27283    5.54115
      H1     6.29630   -1.29512    4.58631
       H     0.31858   -9.57004    5.94936
       O     1.18788   -9.82032    5.49951
      H1     1.74293  -10.13130    6.22686
       H     3.64413  -11.18210    6.85499
       O     2.85810  -10.86924    7.35163
      H1     3.08224  -10.04955    7.79537
       H    -2.38384   -3.91124    5.72257
       O    -2.38202   -4.61316    5.07717
      H1    -3.33198   -4.66695    4.77480
       H     4.01440   -9.22533    4.44510
       O     4.74803   -9.01800    5.00028
      H1     5.30407   -9.78221    5.14924
       H    -2.24480   -6.94911    3.17968
       O    -3.10936   -7.43234    3.25851
      H1    -3.60367   -7.09338    4.00227
       H     3.93340   -8.38090   -0.52457
       O     3.92535   -7.45413   -0.35443
      H1     3.38942   -6.89368   -0.94080
       H     0.35705  -10.66961    4.02318
       O     0.31240  -11.39270    3.33589
      H1    -0.47936  -11.17190    2.85440
       H     0.46125   -5.87610    7.48450
       O     1.10658   -5.12410    7.64902
      H1     1.34549   -5.20913    8.59543
       H     4.09144   -4.07555   -0.48664
       O     4.79697   -4.19221    0.18216
      H1     5.12702   -5.03351    0.17344
       H    -1.52970   -1.88716    2.05846
       O    -0.76818   -2.04584    1.43934
      H1    -0.88145   -2.92122    1.04427
       H     9.98825   -7.44006    0.08593
       O     9.65170   -7.28010    0.96360
      H1     8.88753   -6.70680    0.78314
       H     8.65847   -4.10698    7.00140
       O     7.95821   -3.52304    6.59325
      H1     7.41102   -4.19442    6.14042
       H     1.75458    1.87543    2.03501
       O     1.69487    1.45842    2.90396
      H1     2.53102    0.89183    2.96262
       H     5.04378    0.93120    1.08497
       O     4.36742    0.54129    0.53162
      H1     4.07895   -0.14441    1.13334
       H    -1.09998   -5.19995    3.33260
       O    -0.98829   -5.85535    2.58539
      H1    -0.29200   -6.36345    2.97299
       H     0.03347   -1.24918   -0.04490
       O     0.50583   -0.80256   -0.72612
      H1    -0.22410   -0.70415   -1.35621
       H     5.05588  -10.40386    0.29307
       O     4.64913  -10.16320   -0.58805
      H1     4.05493  -10.94518   -0.77591

