171
frame 5 | Written by MDAnalysis XYZWriter (release 2.4.3)
       H   -12.07295   10.56611    3.74006
       O   -12.59676   11.36163    3.60217
      H1   -13.03589   11.28629    2.72906
       H   -13.65013   18.37368   -0.88385
       O   -14.22239   18.75017   -0.19812
      H1   -13.91234   19.66871   -0.08865
       H   -11.84764   17.09131   -2.12379
       O   -12.24061   17.10603   -1.20994
      H1   -11.49683   16.80385   -0.66358
       H    -1.87399   12.85316    3.16990
       O    -1.99396   13.74134    2.83491
      H1    -2.81491   13.75671    2.33586
       H    -4.75363   18.46550    5.01937
       O    -5.62811   18.10031    4.80340
      H1    -5.54569   17.70456    3.92454
       H    -8.84865   14.56953    6.05082
       O    -9.23651   15.38830    6.48645
      H1    -9.12661   16.06886    5.81571
       H   -10.78048   16.45498   11.35675
       O   -10.25829   15.70242   10.99311
      H1   -10.77650   14.94100   11.36542
       H   -13.91384   16.04524   -1.14577
       O   -14.56516   15.30040   -1.16608
      H1   -14.97261   15.25511   -2.06023
       H    -5.57128   13.02261    8.65026
       O    -5.36633   13.83656    9.14454
      H1    -6.24102   14.24169    9.32433
       H   -13.85322   17.79257    9.05040
       O   -13.68392   18.33440    9.84408
      H1   -13.03070   17.92294   10.41037
       H    -8.12592   10.47388   -0.04136
       O    -8.90818   10.86232    0.27378
      H1    -9.58953   10.17083    0.26294
       H   -12.91876   19.50742    2.66851
       O   -13.63055   19.47539    3.32405
      H1   -14.06556   18.65355    3.15070
       H    -9.77158   17.67479    4.21045
       O    -8.98267   17.75072    4.71488
      H1    -8.22429   17.48050    4.10408
       H    -2.51113   16.36984    8.56986
       O    -1.58013   16.53399    8.18814
      H1    -1.49010   15.81357    7.51729
       H   -12.58033   18.59707    0.83864
       O   -11.80106   18.71247    1.40705
      H1   -11.69684   17.99657    2.05079
       H   -10.37464   16.03115   -3.46988
       O   -10.85891   16.85724   -3.39109
      H1   -10.12323   17.53612   -3.22461
       H   -15.65296   16.34392    6.34077
       O   -16.38588   16.26161    5.73109
      H1   -16.10401   16.40619    4.79341
       H    -8.81611   13.03335    2.62740
       O    -8.54255   12.05549    2.68946
      H1    -8.67828   11.56268    1.86080
       H   -11.87086   19.21010    6.57147
       O   -12.28788   19.86629    5.97803
      H1   -12.61086   19.44430    5.17336
       H   -13.54154   15.71812    7.55010
       O   -14.25154   16.30710    7.75023
      H1   -14.88042   15.92038    8.35606
       H   -10.59277   16.02880    3.25325
       O   -11.05344   16.82090    3.53828
      H1   -11.77054   16.45893    4.08903
       H    -4.07641   10.23845    1.81902
       O    -3.81085   10.96101    2.38625
      H1    -4.63228   11.41535    2.63278
       H    -7.08543   16.50028   -2.16629
       O    -6.48798   16.45551   -1.36921
      H1    -6.08547   15.52366   -1.45069
       H    -9.21077   12.54795   -0.20702
       O    -9.31507   13.50655   -0.42238
      H1    -9.13972   13.60214   -1.38546
       H    -8.49077   18.00377   -4.07609
       O    -8.35401   17.85551   -3.14239
      H1    -7.93992   18.67654   -2.83161
       H    -7.36620   18.65510    6.64768
       O    -7.33754   18.02410    7.42651
      H1    -7.98803   17.36185    7.11932
       H    -5.28591   14.16652    1.93446
       O    -4.58557   14.59953    1.43572
      H1    -4.79562   15.54270    1.28538
       H    -5.74372   12.83369    3.79942
       O    -5.94667   12.76742    2.85505
      H1    -6.87180   12.51939    2.81199
       H   -10.52555   15.07874    9.42810
       O   -10.89313   14.90604    8.50679
      H1   -10.25910   15.14550    7.81793
       H   -16.76422   17.59808    2.86038
       O   -15.82612   17.38651    2.96807
      H1   -15.68037   16.62543    2.36185
       H    -1.00409   18.39825    1.41751
       O    -0.34945   17.98315    0.81563
      H1    -0.19793   17.07829    1.07885
       H    -1.29835   14.81197    5.42256
       O    -0.68218   14.63690    6.17957
      H1     0.03812   14.11621    5.77153
       H    -9.78904   14.00192    3.48456
       O    -9.32227   14.69354    3.05785
      H1    -9.58116   14.69468    2.12172
       H   -11.28758   12.45148    4.14321
       O   -10.68984   13.09448    4.51053
      H1   -10.04953   12.82762    5.19967
       H    -2.05337   18.02797   -0.32758
       O    -2.66282   18.65993   -0.74165
      H1    -3.39551   18.89263   -0.11187
       H    -5.07138   20.07300   10.81515
       O    -5.82388   19.45341   10.94689
      H1    -5.58452   18.83319   10.20371
       H    -9.86262   10.43189    3.14748
       O   -10.32400    9.78362    3.66146
      H1   -10.14608    8.90821    3.31551
       H   -11.39307   17.44231    7.48863
       O   -10.86481   18.22593    7.62788
      H1   -10.73566   18.28891    8.62577
       H    -4.84481   13.69783   -2.36301
       O    -5.09405   13.96496   -1.45736
      H1    -4.43833   14.12983   -0.75452
       H    -4.22475   15.26344    9.67507
       O    -3.60438   15.99079    9.81485
      H1    -4.00074   16.78862    9.38482
       H    -6.51800   17.07328    1.95956
       O    -5.50642   17.26532    2.14289
      H1    -5.33902   18.04393    1.63961
       H    -4.07261   18.60199   -2.07418
       O    -4.76136   18.33894   -2.71768
      H1    -5.45056   18.00204   -2.15059
       H    -9.02002   17.95189   10.07441
       O    -9.42615   18.74335   10.46934
      H1    -9.00482   19.42241    9.97101
       H   -11.80049   13.56727   -0.22232
       O   -12.72153   13.45550    0.01012
      H1   -13.29477   14.08185   -0.44268
       H    -7.60238   17.15289    0.01563
       O    -8.03553   17.22403    0.86936
      H1    -8.31483   18.14331    0.98986
       H    -2.50513   11.02000    6.15000
       O    -3.04362   11.24023    5.40008
      H1    -3.75962   11.90389    5.58933
       H    -0.73514   18.11195    5.81785
       O    -1.16632   18.59879    6.48478
      H1    -1.43263   17.82375    7.03291
       H   -12.44838   14.42773    4.84076
       O   -12.78356   15.28278    5.09614
      H1   -13.65524   14.95658    5.47177
       H    -4.18044   18.96837    8.69280
       O    -4.66066   18.13467    8.56923
      H1    -5.35626   18.31979    7.97205
       H    -7.37948   14.71483   10.67717
       O    -7.54592   15.05341    9.79333
      H1    -8.33870   14.62771    9.53495
       H    -9.80661   12.73660    7.76381
       O    -9.23555   12.54992    7.01081
      H1    -9.42687   11.60274    6.88055
       H    -5.95799   16.76019    6.48302
       O    -5.56835   15.90410    6.46728
      H1    -5.60100   15.50414    7.36626
       H    -5.65865   10.69095    8.02172
       O    -6.08157   11.53071    7.70524
      H1    -7.01344   11.51464    7.79523
       H   -10.04078   14.89756    0.06320
       O   -10.33349   15.70417    0.46654
      H1    -9.49915   16.21743    0.54678
       H   -13.03918   12.46485    8.34026
       O   -13.10654   13.29429    8.90709
      H1   -12.34836   13.85303    8.60071
       H    -4.08032   15.71470    5.39491
       O    -3.34840   15.07381    5.24198
      H1    -3.18321   15.11707    4.32985
       H    -4.89291   13.70963    5.69033
       O    -5.29008   12.84010    5.44815
      H1    -5.53320   12.38316    6.27348

