171
frame 7 | Written by MDAnalysis XYZWriter (release 2.4.3)
       H   -11.08577   -0.51897  -10.75667
       O   -10.64999    0.30562  -10.70609
      H1   -10.60964    0.60394  -11.61969
       H   -16.74195   -5.11309   -7.74227
       O   -17.39835   -5.41173   -7.08554
      H1   -17.31417   -4.94357   -6.25010
       H    -9.64482   -4.86603  -16.54749
       O    -9.93049   -5.74913  -16.78262
      H1   -10.32435   -5.59182  -17.63028
       H   -16.00407   -0.56290  -11.67278
       O   -15.21451   -0.98494  -11.35708
      H1   -15.04455   -1.63283  -12.08041
       H    -7.25370  -12.01885  -11.18195
       O    -7.36533  -11.56977  -11.98026
      H1    -6.47983  -11.37690  -12.30140
       H   -16.04639   -5.84453  -14.86169
       O   -16.61472   -6.63338  -14.88544
      H1   -17.35669   -6.31756  -14.34861
       H   -10.88179  -10.73597  -13.32572
       O   -11.50299  -10.95496  -14.03362
      H1   -11.11487  -11.72788  -14.40751
       H   -16.97172   -2.89036  -13.50191
       O   -16.01040   -2.83166  -13.61233
      H1   -15.73461   -3.78972  -13.48196
       H   -11.93256   -4.61248  -11.62988
       O   -12.43789   -4.87009  -10.82805
      H1   -12.76168   -4.03726  -10.49025
       H   -12.65584   -9.67347  -13.74168
       O   -13.24955   -8.93742  -13.43252
      H1   -14.13313   -9.18883  -13.73078
       H   -13.55684   -4.12521   -4.51949
       O   -14.49648   -3.80970   -4.37384
      H1   -15.00147   -4.64986   -4.31396
       H   -19.63576   -4.28874  -10.29041
       O   -18.86589   -3.74790  -10.29670
      H1   -18.13109   -4.30672  -10.02812
       H   -10.77629   -7.39699   -5.34782
       O   -10.83043   -7.02658   -4.47083
      H1   -11.18609   -6.16283   -4.51558
       H   -15.10950   -1.49813   -8.21677
       O   -15.43414   -2.14230   -8.88803
      H1   -15.62601   -1.57765   -9.62681
       H    -8.34483   -5.87998  -10.93407
       O    -8.38851   -6.35984  -10.06472
      H1    -8.35871   -7.32017  -10.26367
       H   -10.53361  -13.06946  -10.59270
       O   -10.67680  -12.80691   -9.66936
      H1   -10.36357  -13.60654   -9.28524
       H    -9.14013   -6.11522   -4.40688
       O    -8.57177   -5.48700   -3.98775
      H1    -7.79486   -5.63770   -4.50861
       H    -7.94184   -9.43647  -15.89182
       O    -7.92820   -9.40352  -14.89570
      H1    -8.12479   -8.49444  -14.63428
       H   -14.38330  -11.09658  -15.77908
       O   -15.16173  -11.24669  -15.19690
      H1   -15.91243  -10.83089  -15.57507
       H   -15.39930   -5.04789   -9.48615
       O   -16.25921   -4.71134   -9.20082
      H1   -16.18856   -3.72375   -9.15661
       H   -15.59720  -10.09075  -11.88743
       O   -15.79396  -11.02937  -11.70303
      H1   -15.14599  -11.36197  -12.34678
       H   -13.03605   -8.44038   -9.83283
       O   -13.08287   -7.47068   -9.79677
      H1   -12.26334   -7.23167  -10.27170
       H    -8.49202   -6.46404   -8.31172
       O    -8.63274   -6.46410   -7.34769
      H1    -7.82929   -6.90442   -6.94231
       H   -13.28805   -2.76888  -13.97754
       O   -12.41729   -2.36251  -13.89648
      H1   -12.49042   -1.40455  -13.96625
       H   -12.35747   -8.73827  -16.61147
       O   -12.36756   -7.70356  -16.58474
      H1   -11.61928   -7.47481  -17.13572
       H   -14.56113   -7.10511   -7.96175
       O   -15.16620   -7.46384   -7.30155
      H1   -15.96675   -6.86887   -7.26996
       H   -11.54065   -8.66198  -11.09716
       O   -10.87853   -8.08632  -11.41061
      H1   -11.17164   -7.79486  -12.28271
       H   -15.99901   -8.02209  -14.01862
       O   -16.10549   -8.80933  -13.50303
      H1   -16.75270   -9.16612  -14.04157
       H    -9.01351  -10.74615  -12.06408
       O    -9.94977  -10.60441  -11.89801
      H1    -9.98838   -9.63991  -11.76562
       H   -14.83743   -9.30150   -4.47284
       O   -14.17258   -8.65766   -4.76357
      H1   -14.44758   -8.33588   -5.59943
       H    -7.45595   -9.56616  -11.06964
       O    -7.83704   -9.00345  -10.34856
      H1    -7.03221   -8.78378   -9.88273
       H   -11.45627   -3.64596  -13.25255
       O   -10.80715   -4.31689  -13.08634
      H1   -11.04616   -5.08048  -13.61515
       H    -9.75951   -2.32413  -16.26673
       O    -9.28906   -2.95596  -15.76343
      H1    -9.72264   -3.01337  -14.92553
       H   -12.34258   -5.20254   -8.68753
       O   -12.45938   -5.16631   -7.73053
      H1   -12.06151   -5.95178   -7.39223
       H   -19.25098   -7.14151  -13.35141
       O   -18.54945   -6.82564  -12.82219
      H1   -18.71622   -7.34178  -12.00305
       H    -9.87435  -10.95557   -6.48432
       O    -9.71277  -11.33278   -5.62845
      H1   -10.52439  -11.15081   -5.11527
       H   -11.12108   -8.74408   -7.57641
       O   -10.95246   -8.05266   -6.94262
      H1   -10.11106   -7.72790   -7.24872
       H   -11.64259   -4.11323   -4.89836
       O   -11.97232   -4.67239   -4.16071
      H1   -11.73872   -4.11665   -3.36795
       H   -18.12207   -7.93563   -9.29024
       O   -18.16658   -8.00365  -10.26146
      H1   -17.25871   -7.80450  -10.52925
       H    -5.18737   -6.92920   -9.23359
       O    -5.71408   -7.61262   -8.88804
      H1    -5.43279   -7.84758   -8.00470
       H   -12.66638  -12.96863  -12.34354
       O   -13.05073  -13.83949  -12.60310
      H1   -12.44092  -14.49728  -12.25616
       H   -12.78097   -9.73373   -4.44574
       O   -12.23528  -10.54432   -4.18619
      H1   -12.96884  -11.20068   -3.99719
       H   -12.25164   -7.47967  -13.66809
       O   -11.64832   -6.78388  -14.00911
      H1   -11.64241   -6.98924  -14.95970
       H   -12.22760   -2.22661   -8.57045
       O   -12.49575   -2.15981   -9.51719
      H1   -13.35688   -1.68005   -9.34677
       H   -15.07629   -7.28477  -10.70764
       O   -15.79037   -6.97257  -11.25276
      H1   -15.76286   -7.58283  -12.06493
       H   -13.55998   -4.14826  -17.11386
       O   -12.65554   -3.79637  -16.97305
      H1   -12.34643   -4.28580  -16.23880
       H    -9.17334   -4.50307   -7.07398
       O    -8.95693   -3.56201   -6.96331
      H1    -8.51180   -3.06810   -7.67376
       H    -9.13919   -4.10744  -12.51535
       O    -8.19338   -4.18179  -12.60583
      H1    -7.93874   -4.56400  -13.47437
       H   -13.67616  -12.92007   -7.05759
       O   -13.22551  -13.72333   -6.69609
      H1   -12.26207  -13.44557   -6.67943
       H   -11.80566  -10.49764   -9.66235
       O   -12.63657  -10.04768   -9.79477
      H1   -13.27687  -10.67214   -9.50176
       H   -14.84196  -12.10846   -9.41753
       O   -14.45503  -11.76683   -8.59432
      H1   -15.04997  -11.07483   -8.25916
       H    -9.07861   -9.91901   -9.24845
       O    -9.69168  -10.31762   -8.61035
      H1   -10.01159  -11.16262   -8.94326
       H    -7.58879  -12.88578   -8.58965
       O    -7.29266  -12.06343   -9.00021
      H1    -8.00632  -11.36549   -8.81984
       H   -17.36474   -9.92056   -7.61296
       O   -16.46414   -9.81757   -7.25721
      H1   -16.14516   -8.93623   -7.51257
       H   -12.19136   -3.44328   -6.80576
       O   -11.51554   -2.87334   -6.38543
      H1   -10.65314   -3.23723   -6.58232
       H   -12.12647  -10.60475  -17.13993
       O   -12.70048  -10.35675  -16.34044
      H1   -12.12093  -10.49715  -15.57920
       H   -13.79975   -5.84905  -13.57979
       O   -14.59922   -5.36055  -13.43564
      H1   -14.72884   -5.52706  -12.49052

