171
frame 9 | Written by MDAnalysis XYZWriter (release 2.4.3)
       H     7.64285   18.89776   13.59834
       O     8.33933   18.47097   13.06880
      H1     9.06593   18.71318   13.62750
       H     9.48448   17.17560    3.01902
       O     9.10345   17.98069    3.43747
      H1     8.20161   17.70365    3.71783
       H    13.25626   20.37157   11.81457
       O    13.27923   19.82094   12.58444
      H1    13.07946   18.92103   12.19220
       H    15.22096   18.67009   16.27866
       O    14.97110   19.42191   15.72805
      H1    14.41786   19.15964   15.02884
       H    12.95788   17.59637   15.88668
       O    13.13437   17.34494   14.95972
      H1    13.86980   16.71790   14.94540
       H     6.95633   18.89431   15.54079
       O     6.58290   19.52167   14.92349
      H1     5.65181   19.72784   15.13354
       H    15.05966   15.52390    3.74749
       O    14.17144   15.20215    3.98203
      H1    13.79911   15.83148    4.63007
       H     3.89195   14.52426   14.46018
       O     4.41494   13.75413   14.18840
      H1     4.24380   13.74276   13.25678
       H     7.26149   16.91607    7.66306
       O     7.37325   15.94319    7.73869
      H1     6.78244   15.62291    7.04589
       H    10.74096    9.46301   11.30462
       O    11.06388   10.34781   11.57889
      H1    11.33314   10.79551   10.78918
       H    12.45563   11.63460    8.97998
       O    11.53048   11.76077    9.00901
      H1    11.33632   12.71807    9.11872
       H     1.98944   18.28748    4.47086
       O     1.62105   18.83132    5.17679
      H1     2.16032   19.63157    5.19443
       H    14.30241   17.67867    8.08104
       O    14.22842   18.26609    8.86932
      H1    15.08786   18.66565    9.08490
       H     4.84117   17.21988   11.98354
       O     4.37833   17.84564   11.36034
      H1     3.90588   17.25088   10.79005
       H     6.85520   16.80309   12.81085
       O     6.04123   16.28372   12.76532
      H1     6.16812   15.77290   11.94903
       H     6.65147   14.72641   14.64778
       O     7.47287   15.11257   15.04359
      H1     8.04355   14.33595   15.10072
       H    13.38817   19.20700    3.72185
       O    14.17511   18.80534    3.29977
      H1    14.79981   19.56401    3.21400
       H     2.19026   15.84556    6.91126
       O     2.90946   16.46110    6.70022
      H1     2.53674   17.22655    6.31372
       H     9.74881   17.37019   11.95909
       O    10.30229   17.04413   11.26853
      H1    11.24491   17.19313   11.57148
       H     5.35614   14.65135    2.64623
       O     5.00783   15.49721    2.23931
      H1     4.23763   15.67176    2.77420
       H    10.10899   18.36408    9.74465
       O    10.01699   18.92448    8.97558
      H1     9.09566   19.02978    8.85497
       H     4.04307   12.45960    7.43642
       O     3.10599   12.33301    7.68227
      H1     3.16870   11.88682    8.55914
       H    12.79901   17.42431    6.15521
       O    13.66530   17.25547    5.78896
      H1    13.64127   17.71219    4.95575
       H    13.12936   15.08198    2.37858
       O    12.49958   15.44715    1.73146
      H1    12.83298   16.33231    1.47475
       H     9.64002   14.20121    5.54271
       O     9.81087   13.51927    4.90629
      H1    10.68838   13.22243    4.93444
       H    16.35373   19.96082   12.92143
       O    16.15629   19.06565   12.61869
      H1    15.20994   19.09358   12.45916
       H     7.01724   19.26266    8.81485
       O     7.26492   18.83983    7.98978
      H1     6.93464   19.37719    7.23142
       H     4.95809   13.71398   10.80158
       O     4.54076   13.11330   11.40263
      H1     3.96096   12.57823   10.84815
       H    16.19653   19.94283    9.44216
       O    16.58932   19.09006    9.80323
      H1    16.36271   19.02189   10.76974
       H    14.88477   14.12291    6.30755
       O    14.45625   13.30429    6.23708
      H1    14.46037   12.87474    7.11546
       H     8.48044   16.17251    6.15294
       O     9.26986   16.12652    5.64872
      H1     9.11230   16.69412    4.84527
       H    15.50477   18.77355    5.69945
       O    16.37387   18.52277    6.01168
      H1    16.81740   19.37216    5.82825
       H     5.92400   17.20165    3.30373
       O     6.38022   17.34705    4.18760
      H1     5.97706   16.60917    4.62470
       H     2.50145   15.39390   10.27876
       O     3.25352   15.86502    9.83254
      H1     2.94805   16.16418    8.92366
       H     5.85489   11.95967   11.44015
       O     6.48340   11.28688   11.58920
      H1     7.27682   11.78246   11.76961
       H    12.49590   18.56046    0.79727
       O    13.15707   17.87003    0.85202
      H1    13.61564   18.07217    1.63771
       H     9.25983   12.63378   13.07654
       O     9.28587   12.27569   12.17475
      H1     9.84474   11.54638   12.09677
       H     5.44998   12.68442    5.11906
       O     5.43929   12.88863    6.06555
      H1     5.99091   12.40788    6.62309
       H    11.29553   18.37428    5.51476
       O    11.25299   19.00280    4.76331
      H1    10.53086   18.76575    4.18593
       H     6.10920   18.93490    1.73295
       O     6.81122   18.30281    1.40366
      H1     7.57145   18.40828    1.96887
       H    10.43886   11.29741    7.58040
       O     9.63124   11.19417    7.04666
      H1     9.52556   11.97052    6.44442
       H    15.84354   15.51892   12.16969
       O    14.87688   15.37643   12.06488
      H1    14.75353   14.45503   11.83936
       H    10.88192   17.89932    7.81431
       O    11.24799   17.32830    7.08171
      H1    10.47757   16.97807    6.62522
       H     7.68705   16.54322   15.92091
       O     7.86500   17.34306   16.44731
      H1     7.40078   17.16731   17.29301
       H     7.69556   10.65552    7.70893
       O     6.85352   11.05070    7.74385
      H1     6.90320   11.73722    8.41118
       H     6.62923   15.39977    9.53109
       O     5.97947   15.22870   10.23304
      H1     5.21152   15.52888    9.84542
       H     5.43725   14.54743    5.87511
       O     5.37226   15.51404    5.93389
      H1     4.38649   15.74117    6.08063
       H    10.58167   14.87642   10.64269
       O    11.06512   14.10658   10.95906
      H1    10.44312   13.60069   11.46806
       H    13.59183   16.81654   11.71351
       O    13.01831   17.38486   11.20580
      H1    13.45641   17.40714   10.38093
       H    14.55551   14.80813   14.05907
       O    14.72042   14.87560   15.01213
      H1    15.69181   14.87499   15.07435
       H    17.41474   15.74672    4.96507
       O    16.68603   16.27885    4.55773
      H1    16.66996   17.13640    5.01884
       H    12.59882   13.21853   11.61863
       O    13.46420   12.84086   11.88865
      H1    13.41564   12.59545   12.82987
       H    10.63517   15.68275    2.22612
       O     9.65886   15.75770    2.15101
      H1     9.21031   14.92594    2.55467
       H     2.81830   17.26111   13.91277
       O     2.65216   16.32160   14.12810
      H1     2.15117   15.91356   13.35303
       H     9.98270   15.95973   15.53905
       O    10.75869   15.46650   15.70444
      H1    11.46870   16.11724   15.43859
       H     8.70926   13.06390    3.57415
       O     8.44774   13.20571    2.61867
      H1     9.25473   12.83457    2.21506
       H    10.91720   19.82961   15.20100
       O    10.86776   19.04337   14.61514
      H1    11.76816   18.84452   14.40108

