171
frame 9 | Written by MDAnalysis XYZWriter (release 2.4.3)
       H    -6.48891  -16.30484   10.14286
       O    -5.65399  -16.13474    9.62630
      H1    -5.21497  -16.99208    9.59339
       H    -1.66337  -17.85907   15.89458
       O    -1.41919  -18.27436   15.05151
      H1    -1.15488  -19.23936   15.30271
       H    -6.23321  -16.69669   13.06646
       O    -6.19450  -15.73498   12.88668
      H1    -5.28079  -15.66490   12.58001
       H     1.11953  -13.62263    8.03711
       O     1.59450  -13.10869    8.70985
      H1     2.04725  -12.25178    8.30631
       H     0.61763  -11.43991   10.95450
       O     0.61746  -12.40191   11.00951
      H1     0.81018  -12.71418   10.12194
       H    -6.29973  -15.27444    6.35949
       O    -5.76642  -15.78455    5.65858
      H1    -6.31727  -16.25634    5.08999
       H     3.28286  -20.02130   12.21250
       O     2.80969  -19.38200   12.72828
      H1     3.32601  -19.35900   13.56859
       H    -8.77500  -14.28245   16.70348
       O    -7.92529  -14.70847   16.72067
      H1    -7.42568  -14.28318   16.08722
       H    -9.01835  -10.66003   12.48816
       O    -8.48639  -11.07700   13.19254
      H1    -7.56577  -10.98000   12.89574
       H    -6.18655  -18.46061   14.30041
       O    -6.83126  -18.14255   13.66087
      H1    -7.29363  -18.87880   13.17099
       H    -7.51879  -12.76732   14.73572
       O    -6.78190  -13.41148   14.78475
      H1    -6.90738  -14.05526   14.04784
       H    -3.71433  -14.63829   17.76154
       O    -4.27683  -15.29662   18.20561
      H1    -4.45291  -14.92578   19.06082
       H    -2.28890  -13.85801   17.17874
       O    -2.92564  -13.81701   16.43496
      H1    -2.56640  -14.14879   15.61601
       H    -1.08365  -16.95309   17.84496
       O    -1.83881  -17.02332   17.35411
      H1    -2.29280  -16.24063   17.64066
       H    -2.01385   -9.16686   12.64483
       O    -1.43469   -8.45095   12.40305
      H1    -1.99326   -7.93462   11.65271
       H    -2.05973  -16.29428    8.97292
       O    -2.33261  -15.39562    8.65689
      H1    -2.46840  -15.44534    7.71345
       H    -1.96996  -11.60827   13.37427
       O    -2.11728  -10.72732   13.73784
      H1    -1.47793  -10.48409   14.41818
       H    -4.93439  -10.99639   15.59667
       O    -4.63644  -10.33382   14.93559
      H1    -3.80145  -10.69156   14.62745
       H    -4.35123  -15.46854   10.63402
       O    -3.97287  -15.26858   11.53110
      H1    -3.13961  -15.71892   11.47673
       H    -0.04443  -11.28179   16.16697
       O    -0.33913  -10.55257   15.58341
      H1    -0.98640  -10.10730   16.13908
       H    -1.47106  -18.02958   10.08358
       O    -2.17011  -17.61467   10.65794
      H1    -2.18556  -18.28555   11.28618
       H    -8.34263  -16.04196   15.44540
       O    -8.91214  -16.65894   14.91820
      H1    -8.27515  -17.32385   14.52172
       H    -3.98482  -12.53777    9.72605
       O    -4.40465  -12.74083   10.59235
      H1    -4.25393  -13.67758   10.84107
       H    -8.84033  -16.08196   10.14659
       O    -8.94351  -17.06078   10.14620
      H1    -8.58888  -17.30228    9.22174
       H    -2.48091  -17.71566    4.40265
       O    -2.36663  -18.19530    5.18825
      H1    -1.52075  -17.78222    5.56288
       H    -5.60815  -19.99138    6.54890
       O    -6.53638  -20.12654    6.83609
      H1    -6.81140  -19.31311    7.22788
       H    -4.79644  -18.37923   15.69060
       O    -4.93662  -19.28984   15.40291
      H1    -4.09353  -19.77252   15.51883
       H    -4.31334  -18.89704    8.51990
       O    -4.42324  -18.62491    9.47676
      H1    -3.51785  -18.33344    9.66002
       H    -0.65695  -10.71117    7.99015
       O    -1.24747  -11.33065    7.59383
      H1    -0.71986  -11.70327    6.88037
       H     0.04540   -9.59381   11.95548
       O     0.69860   -9.63466   11.25326
      H1     1.36273   -8.95474   11.58218
       H    -5.62753  -11.45174   11.74189
       O    -5.81900  -10.70422   12.31965
      H1    -5.27586  -10.69266   13.10872
       H    -4.09350  -12.78630    7.36391
       O    -3.98859  -13.45847    6.66532
      H1    -4.78383  -14.04031    6.75369
       H     2.99125  -17.66162   12.15473
       O     2.88498  -16.72957   12.21034
      H1     3.00584  -16.30965   11.31554
       H    -8.23974  -17.46715    7.17338
       O    -7.60181  -17.59942    7.90094
      H1    -6.97981  -16.84921    8.03790
       H    -1.06022  -12.72197   11.77886
       O    -1.80708  -13.06609   12.34066
      H1    -2.65246  -12.86734   11.93675
       H    -0.60039  -14.78247    7.93006
       O     0.02076  -14.78180    7.21814
      H1    -0.17634  -13.95436    6.76696
       H    -9.31906  -13.73187   10.65648
       O    -8.50526  -14.19371   10.75323
      H1    -8.07911  -14.03106   11.57963
       H     1.99943  -13.99312   14.92106
       O     1.38231  -14.59283   15.35810
      H1     1.57661  -15.42820   15.00887
       H    -0.38271  -18.29191    7.68228
       O    -0.78312  -18.61994    8.53188
      H1    -1.13940  -19.52899    8.29885
       H    -5.48849   -9.14829   11.65565
       O    -5.15925   -8.29706   11.32278
      H1    -5.39191   -7.62799   11.94741
       H     1.26286  -18.34626   17.74580
       O     1.52899  -17.55468   17.16958
      H1     1.11283  -17.72532   16.32012
       H     3.59215  -16.00754    9.41586
       O     3.13666  -15.34602    9.95024
      H1     2.88688  -14.64387    9.34854
       H    -8.10242  -19.83413   11.10833
       O    -8.75122  -19.37877   11.63982
      H1    -8.87530  -18.46275   11.25638
       H     3.37419  -11.89925   14.89447
       O     3.14000  -12.68156   14.37628
      H1     2.85818  -12.31563   13.52634
       H    -8.17137  -14.71443    7.74088
       O    -7.23600  -14.47456    7.70088
      H1    -6.87161  -14.54084    8.61050
       H    -0.04545  -16.46215    6.46479
       O    -0.04754  -17.27964    5.91710
      H1     0.08114  -17.04984    4.94329
       H    -2.93462  -13.80363    3.45096
       O    -2.62332  -14.19049    4.31001
      H1    -3.10231  -13.79121    5.08297
       H    -5.37825  -12.17075   17.76544
       O    -5.99094  -11.96435   17.03543
      H1    -5.97621  -12.80339   16.50852
       H    -5.12914  -12.28635    5.64394
       O    -5.63405  -11.92217    4.88878
      H1    -5.81480  -12.69351    4.28080
       H    -5.14132  -16.47193   16.93125
       O    -5.34383  -16.58154   15.97907
      H1    -4.76197  -15.94349   15.55761
       H    -7.59411  -12.64853    7.97747
       O    -7.60942  -11.69455    7.78701
      H1    -6.73193  -11.53240    7.41232
       H    -3.27486  -19.05713    6.46518
       O    -3.78349  -19.64793    6.99674
      H1    -3.09574  -20.15278    7.46079
       H     1.12226  -17.18853   13.44201
       O     0.70616  -17.14365   14.29121
      H1    -0.05569  -17.74593   14.34737
       H    -2.92147  -11.38519    8.15829
       O    -3.84792  -11.41287    8.28503
      H1    -4.26645  -10.59344    7.98334
       H     2.17113  -12.21318   11.45424
       O     3.03502  -11.85600   11.76957
      H1     3.63559  -12.06440   11.07268
       H    -1.84215  -14.49056   13.48098
       O    -1.93100  -15.10632   14.22836
      H1    -1.05012  -15.27434   14.55480
       H     1.22527  -13.35079   16.71658
       O     0.85974  -12.82154   17.48310
      H1     1.62447  -12.25983   17.73332

