171
frame 6 | Written by MDAnalysis XYZWriter (release 2.4.3)
       H    -5.03461   -8.94280    5.64035
       O    -5.52679   -8.32028    6.13371
      H1    -6.40859   -8.66673    6.27472
       H    -2.99350   -7.82452    0.64407
       O    -3.75278   -8.12471    1.15477
      H1    -3.98634   -7.28332    1.61535
       H     4.56055   -7.10963    3.46566
       O     4.84929   -7.31496    2.59576
      H1     4.01696   -7.28229    2.15340
       H     0.15882   -7.66205    2.13399
       O     0.32264   -8.08557    1.26989
      H1     0.78397   -8.88656    1.62178
       H    -6.56949   -7.31074   10.15191
       O    -7.46536   -7.49959    9.79371
      H1    -7.47304   -8.46932    9.76811
       H    -3.81941   -2.85019   11.72146
       O    -3.52655   -1.96777   11.36624
      H1    -3.46000   -1.51453   12.22812
       H    -8.16751   -5.85581    6.16542
       O    -8.47363   -4.93833    5.96639
      H1    -7.68141   -4.41022    5.88507
       H     4.40707   -7.03799    6.27641
       O     4.62981   -6.28448    6.95556
      H1     4.92682   -5.59530    6.30790
       H    -1.30595   -6.10928    6.24899
       O    -0.48188   -6.66308    6.33345
      H1    -0.90411   -7.51696    6.39822
       H     1.24529   -6.16859    3.76726
       O     0.50456   -6.76578    3.76797
      H1     0.21987   -6.93919    4.68778
       H    -1.32844   -4.40381    0.95496
       O    -1.25785   -3.94710    0.07702
      H1    -0.62136   -4.54798   -0.33708
       H     2.96006   -2.21484    7.03231
       O     3.52771   -2.99219    6.94708
      H1     2.95155   -3.73563    7.20602
       H     0.04837   -1.93936    2.96341
       O     0.72364   -2.35934    3.51886
      H1     0.76205   -1.94499    4.36619
       H     2.39279  -10.84020    4.08575
       O     2.35496   -9.87198    4.12994
      H1     1.48807   -9.48188    4.37120
       H    -4.37610   -4.89179   12.74889
       O    -4.68567   -4.50487   11.90742
      H1    -4.49772   -5.26964   11.34095
       H     4.79203   -3.73103    5.30184
       O     4.91412   -4.53720    4.78085
      H1     4.10261   -4.64056    4.18036
       H     2.91474   -4.60516    1.94734
       O     2.51387   -4.79645    2.82376
      H1     1.79896   -4.15309    2.93116
       H     0.13519   -8.80678   12.44851
       O     0.54401   -7.98052   12.42313
      H1     0.13575   -7.41859   11.75851
       H    -3.95191  -10.73956    5.54625
       O    -3.56120   -9.94234    5.12911
      H1    -3.36673  -10.06635    4.18838
       H    -0.15067   -3.44155    8.30026
       O    -0.92008   -2.90263    8.54735
      H1    -1.02437   -2.24209    7.86393
       H    -1.56544   -6.66574    9.50177
       O    -1.17878   -7.26228   10.23436
      H1    -1.60706   -6.81781   11.04520
       H    -5.64595   -6.72119    5.58136
       O    -5.59600   -5.69888    5.57934
      H1    -6.26138   -5.38330    4.95702
       H    -2.26226   -9.35146   12.10893
       O    -1.41832   -9.70353   11.69063
      H1    -1.18829   -9.37189   10.81418
       H    -4.39028   -7.41684   11.27491
       O    -4.86894   -6.88951   10.65862
      H1    -4.53136   -7.12000    9.77365
       H     2.96446   -0.11515    3.48517
       O     2.80257   -0.67021    2.72229
      H1     2.32599   -1.41944    3.04845
       H    -2.06679   -4.88850   11.13597
       O    -1.72335   -5.17901   12.04506
      H1    -2.38024   -4.89862   12.64682
       H     0.84810   -9.57291    9.32126
       O     0.08759  -10.09030    9.02542
      H1     0.39359  -11.02604    9.08507
       H    -2.28881   -9.80724    6.56395
       O    -1.68592   -9.23086    7.02185
      H1    -1.24072   -9.73170    7.69159
       H     3.02569   -5.42709   10.36830
       O     2.08945   -5.64688   10.26968
      H1     1.76342   -5.00795   10.90211
       H    -1.62946   -1.13471   11.33077
       O    -0.81952   -1.28690   10.81529
      H1    -1.06396   -1.75784    9.99514
       H     0.66999   -0.81547    6.40137
       O    -0.18686   -1.02182    6.04059
      H1    -0.43598   -0.28703    5.47538
       H    -5.82550   -1.77083    9.05657
       O    -5.56823   -2.61787    9.48965
      H1    -5.02500   -2.29561   10.22936
       H    -3.32613   -9.55364    2.00024
       O    -3.06119  -10.40203    2.41663
      H1    -3.91318  -10.84632    2.46291
       H     4.97304   -8.14470    8.28631
       O     4.32142   -8.75036    8.69256
      H1     3.59131   -8.29909    9.21840
       H     2.16747   -8.83448   10.63289
       O     2.00665   -8.36718    9.81252
      H1     1.72797   -7.43385   10.02695
       H    -3.17470   -8.50525    7.82448
       O    -3.98990   -8.22779    8.24542
      H1    -4.64227   -8.12555    7.52264
       H    -2.04360   -4.22247    9.04194
       O    -2.29958   -5.04346    9.52882
      H1    -3.28966   -5.09195    9.47773
       H     3.10401    0.05376    6.64371
       O     2.37756   -0.40057    7.10163
      H1     2.70707   -0.58808    7.99584
       H    -4.79772   -0.74773    5.20011
       O    -4.73232   -1.74720    5.06278
      H1    -5.71892   -1.93540    4.99080
       H    -6.17812   -4.73345    2.09363
       O    -7.00311   -4.55619    2.66120
      H1    -7.08502   -3.61285    2.83877
       H    -0.71686  -10.14750    5.98734
       O    -0.04372  -10.73442    5.61645
      H1     0.63447  -10.67651    6.31313
       H     3.36796  -11.42246    7.18247
       O     2.63919  -10.78537    7.31942
      H1     3.03518  -10.00200    7.64683
       H    -3.23027   -4.34639    5.86440
       O    -2.69942   -5.00491    6.30991
      H1    -3.28639   -5.31721    7.03114
       H     3.72243   -9.00728    4.70865
       O     4.37704   -8.48818    5.23964
      H1     5.06413   -9.08837    5.57162
       H    -3.18793   -5.87769    3.21592
       O    -4.02963   -6.33712    3.34137
      H1    -4.42264   -5.78562    4.01576
       H     2.85015   -8.16244    0.24003
       O     2.89774   -7.22252    0.46058
      H1     2.00411   -6.96996    0.67205
       H    -0.05014  -11.60719    4.05156
       O    -0.37041  -11.94783    3.20147
      H1    -1.13141  -11.27594    3.01444
       H    -0.19504   -4.17999   11.82768
       O     0.65713   -3.60439   11.75575
      H1     0.25688   -2.81967   11.37234
       H     1.37865   -5.34520    7.15093
       O     1.38255   -4.62501    7.71602
      H1     1.78079   -4.98495    8.51227
       H    -1.99543   -1.66502    2.36693
       O    -1.16026   -1.53035    1.94212
      H1    -1.09243   -2.16704    1.22070
       H    -5.18597   -3.96425    8.38970
       O    -5.05979   -4.93658    8.21699
      H1    -5.30546   -5.15134    7.26571
       H    -4.15612  -11.44388    8.13811
       O    -4.37444  -11.67218    7.18346
      H1    -4.00810  -12.53395    6.94529
       H    -5.96865  -10.25636    3.63718
       O    -6.40793   -9.45887    3.42684
      H1    -5.76817   -8.75844    3.27845
       H    -4.00816   -2.27973    3.70951
       O    -3.55496   -2.81118    2.94812
      H1    -4.03085   -2.39017    2.21385
       H    -3.25007  -10.57450    9.95516
       O    -4.10157  -10.62340    9.61329
      H1    -4.13277   -9.70876    9.21569
       H    -2.24500   -4.15444    2.97458
       O    -1.73344   -4.89713    2.60692
      H1    -1.09496   -5.21731    3.27962
       H    -4.04815   -4.81461    0.21750
       O    -4.93882   -4.54208    0.53271
      H1    -5.14293   -3.76416    0.01961

