171
frame 0 | Written by MDAnalysis XYZWriter (release 2.4.3)
       H   -15.75084  -13.80782    8.57393
       O   -15.68414  -13.93624    7.62819
      H1   -15.67845  -13.03334    7.26725
       H    -6.89018  -16.80739   11.44504
       O    -5.94213  -16.73653   11.39164
      H1    -5.61387  -17.34342   10.75272
       H    -8.32337  -18.80393    1.07948
       O    -8.76828  -19.12864    0.28792
      H1    -9.65102  -19.30556    0.64972
       H   -10.49317  -15.75235   12.43743
       O   -11.30787  -15.36414   12.81452
      H1   -11.73240  -14.84968   12.10141
       H    -5.94965  -17.72538    7.08327
       O    -5.43313  -17.24623    6.34812
      H1    -5.79332  -17.48754    5.43302
       H   -11.84447  -17.21328    6.92943
       O   -11.38550  -17.55676    6.21785
      H1   -11.64296  -17.23176    5.42140
       H    -9.35624  -17.12976    3.23720
       O    -8.80373  -17.91927    3.21968
      H1    -9.46090  -18.59510    3.25534
       H    -6.74579  -13.62325    6.46300
       O    -6.75737  -12.75679    6.04413
      H1    -7.67470  -12.42927    6.08814
       H   -10.53733  -11.22140    9.50559
       O    -9.72928  -11.49899    9.14550
      H1    -9.84332  -11.04228    8.26695
       H   -18.42700  -16.31768    4.49503
       O   -18.87594  -15.45897    4.47650
      H1   -19.80290  -15.74643    4.36660
       H   -12.84932  -11.12271    9.99125
       O   -12.12453  -11.59649   10.48050
      H1   -12.49642  -12.46410   10.72876
       H    -9.43168  -17.52026   12.39175
       O    -8.99366  -16.86037   11.87000
      H1    -9.40761  -16.93015   11.01257
       H    -7.57701  -13.40168   12.33256
       O    -7.80627  -14.27145   12.83776
      H1    -8.28282  -14.84750   12.20771
       H   -18.40190  -13.97074    3.55857
       O   -18.13070  -13.04716    3.41241
      H1   -17.13597  -13.05360    3.36010
       H    -9.69841  -12.85108    4.48271
       O    -9.19491  -12.41115    3.77613
      H1    -9.08718  -13.02569    3.02752
       H   -19.01799  -16.89227    9.59102
       O   -18.60904  -16.63528   10.41594
      H1   -18.32612  -15.74909   10.24393
       H   -12.83029  -15.26884    8.48695
       O   -12.15221  -15.83929    8.92322
      H1   -12.62555  -16.45675    9.52132
       H   -15.49663  -15.11817   -0.24114
       O   -14.89189  -15.63527    0.26689
      H1   -15.41875  -16.30905    0.81982
       H   -16.31185  -17.54642    2.82462
       O   -15.73768  -17.45001    2.01300
      H1   -15.77022  -18.33472    1.53168
       H   -17.50942  -14.03763    7.16759
       O   -18.42577  -13.96377    6.94430
      H1   -18.59744  -14.54095    6.17503
       H   -12.47011  -17.40092   12.77263
       O   -12.42412  -17.83631   13.66884
      H1   -11.61829  -17.44726   14.06156
       H   -19.28578  -12.40450    7.07756
       O   -19.60789  -11.50953    7.38339
      H1   -18.81495  -10.96223    7.37920
       H   -11.43433  -10.48885    4.97597
       O   -11.15141  -10.52585    4.03737
      H1   -10.52484  -11.29903    3.95996
       H   -17.30529  -11.84850    1.10367
       O   -16.38148  -12.07766    1.09413
      H1   -16.19172  -12.43422    1.99740
       H   -11.70422  -15.94775    3.00839
       O   -10.73713  -15.74280    3.00153
      H1   -10.61877  -15.10232    3.78756
       H   -11.44597  -14.00101    5.96437
       O   -10.61296  -13.88815    5.60242
      H1    -9.99350  -14.39866    6.10739
       H    -7.04323  -17.19162    2.52156
       O    -6.41909  -16.56742    2.18223
      H1    -6.75049  -16.11789    1.39422
       H   -15.43815  -15.91316   11.52766
       O   -15.47978  -14.93792   11.69382
      H1   -15.92239  -14.89089   12.61617
       H   -10.25060  -11.65599    6.46066
       O   -10.18350  -10.73577    6.60018
      H1    -9.42275  -10.49193    6.01596
       H    -8.86551  -17.04144    8.87116
       O    -9.72680  -17.38406    9.10473
      H1   -10.35783  -16.62722    8.93639
       H   -13.08065  -19.04660    7.65951
       O   -13.95274  -18.91050    7.22719
      H1   -13.72768  -19.19789    6.29357
       H    -9.45869  -19.11188   14.65150
       O    -9.66741  -18.21879   14.46910
      H1    -9.32346  -17.55771   15.07206
       H    -7.37101  -19.23406    7.65212
       O    -7.06597  -18.47213    8.26092
      H1    -6.59766  -18.86807    9.02501
       H   -14.76196  -11.67648   10.51070
       O   -14.89650  -11.61814    9.52383
      H1   -14.63943  -10.73919    9.23123
       H   -13.14472  -14.08904   14.95154
       O   -12.62645  -14.79503   15.25623
      H1   -12.04394  -15.00584   14.50504
       H    -9.69498  -16.87771    6.35969
       O    -8.95715  -16.29667    6.21174
      H1    -8.54860  -16.72060    5.44785
       H   -14.22605  -10.51146    3.34988
       O   -13.57251  -11.09349    2.83804
      H1   -12.73198  -10.99799    3.27531
       H   -19.41149  -18.56269   15.04208
       O   -18.76821  -18.74596   14.31435
      H1   -17.91334  -18.83282   14.76300
       H   -12.69643  -14.58372   10.32772
       O   -12.89600  -14.07376   11.08187
      H1   -13.75394  -14.36605   11.43534
       H   -15.54078  -19.23611   15.80373
       O   -16.15935  -18.80701   15.17570
      H1   -15.77234  -19.10331   14.31776
       H   -14.61646  -13.11702    2.95249
       O   -15.34120  -13.32569    3.56973
      H1   -15.13368  -12.80918    4.36155
       H   -18.07631  -13.35348    8.96686
       O   -18.14801  -13.58055    9.91096
      H1   -17.90400  -12.75253   10.39742
       H   -19.22481  -18.50573    8.12160
       O   -18.88003  -17.85604    7.44760
      H1   -19.59447  -17.75581    6.82044
       H   -15.70362  -17.76706    7.07833
       O   -16.38696  -17.27176    6.63761
      H1   -17.23050  -17.51782    7.06163
       H    -9.26828  -13.49215    9.30113
       O    -9.01952  -14.40494    9.58308
      H1    -8.31796  -14.63410    8.96535
       H   -18.06395  -18.78260    4.30597
       O   -17.40696  -18.07747    4.24322
      H1   -16.87092  -17.97351    5.04669
       H   -13.72083  -12.77462    0.19941
       O   -13.45436  -13.24659    0.98438
      H1   -13.71119  -14.21591    0.93990
       H   -13.98526  -13.79660    7.32618
       O   -13.09382  -14.09987    7.10165
      H1   -13.26746  -14.84228    6.51694
       H   -16.88403  -11.09890    6.06714
       O   -16.02613  -11.45278    6.22442
      H1   -15.47995  -10.74326    6.66066
       H   -18.53901  -16.49885    1.25591
       O   -19.45837  -16.33497    0.94636
      H1   -19.63225  -17.01925    0.27758
       H   -14.84653  -15.02663    4.51839
       O   -14.49006  -15.65913    5.14190
      H1   -15.21007  -15.87595    5.75945
       H   -12.44117  -18.63814   10.48974
       O   -12.96898  -17.91169   10.88885
      H1   -13.84350  -18.32459   10.76885
       H    -7.60285  -15.46104    7.08549
       O    -7.08880  -14.81667    7.59961
      H1    -6.15920  -15.07442    7.63365
       H   -14.05125  -17.28653    2.52739
       O   -13.41054  -17.22451    3.24885
      H1   -13.86274  -16.59376    3.81254
       H   -16.84424  -17.38076   10.74766
       O   -15.96032  -17.79141   10.95454
      H1   -16.11277  -18.76485   11.12999
       H   -12.80932  -18.27564   -0.07679
       O   -13.43205  -18.22589   -0.79879
      H1   -13.96240  -17.42827   -0.72505
       H   -17.58883  -14.77063   13.81187
       O   -16.78615  -14.65135   14.28830
      H1   -16.66021  -15.42824   14.88105

