171
frame 5 | Written by MDAnalysis XYZWriter (release 2.4.3)
       H    16.23001   -1.11227   13.43347
       O    16.43777   -1.70678   14.16416
      H1    16.08638   -1.24002   14.92043
       H    19.64446    0.52489   10.65751
       O    18.81996    0.57083   11.20155
      H1    18.78013    1.46333   11.54840
       H    17.94645    4.19973    6.17130
       O    17.96636    3.81586    7.11227
      H1    17.04251    3.67336    7.42881
       H    17.24414    5.81066    5.49385
       O    18.03406    5.52184    5.05088
      H1    18.77800    6.01546    5.35032
       H    16.27922    5.79035   10.91422
       O    15.54048    6.45742   11.04088
      H1    14.87567    6.04247   11.60947
       H    18.42267    5.51090    9.27306
       O    18.03769    5.37873   10.17078
      H1    18.19063    4.45892   10.13233
       H    18.37203   -4.70906   11.33933
       O    18.34042   -3.81708   10.90316
      H1    18.93968   -3.31168   11.46173
       H    14.71345    2.86840    7.78981
       O    15.20662    3.57373    7.33679
      H1    14.78026    4.39920    7.58417
       H    16.52380    0.84939   15.87205
       O    15.91840    0.15060   16.19827
      H1    16.11095    0.04186   17.15654
       H    14.19502   -6.44383   11.16848
       O    13.67694   -6.66527   10.37425
      H1    14.23917   -6.26405    9.69952
       H    18.42080    2.59048   14.03686
       O    18.83946    2.84288   13.16752
      H1    19.75025    3.11363   13.43039
       H    11.71365   -3.58528    6.61820
       O    12.37866   -3.73765    7.29734
      H1    13.11917   -3.73596    6.75634
       H    11.18399    3.23437   15.19377
       O    11.40416    2.32492   15.07963
      H1    12.03067    2.30649   14.37882
       H    19.13277    6.83926    7.72236
       O    19.44530    5.89038    7.72878
      H1    18.61987    5.29734    7.56373
       H    14.06650    2.44662   12.87629
       O    13.32751    1.89959   13.14411
      H1    12.97484    1.59196   12.30972
       H    14.74530    3.03246    5.38410
       O    14.82837    2.40869    4.60616
      H1    14.18021    2.72779    3.96977
       H    18.90520   -4.15612    6.24890
       O    18.42581   -3.44523    6.62929
      H1    17.71427   -3.74498    7.22564
       H    14.65149   -0.67936    8.55112
       O    15.10383   -1.25370    9.25636
      H1    15.56303   -1.99008    8.75766
       H    16.03122    3.35741   13.38364
       O    15.23721    3.57523   13.90578
      H1    15.10712    2.85886   14.53667
       H    13.04650   -2.54676   12.89864
       O    12.66376   -1.70523   13.11086
      H1    12.33128   -1.40999   12.22275
       H    13.75092   -3.81788    4.34280
       O    13.92686   -3.06401    4.90102
      H1    14.92547   -3.04339    4.94196
       H    13.48601    0.22326   16.15219
       O    12.71658   -0.32992   15.99546
      H1    12.60823   -0.35479   15.02775
       H    16.45733   -0.08281    3.38501
       O    16.42338    0.05438    2.44981
      H1    15.99351   -0.66209    1.98065
       H    18.81683    2.18292    9.90381
       O    19.21704    2.92035    9.44690
      H1    18.69751    3.04225    8.64987
       H    16.57562   -1.39890    5.17313
       O    16.67032   -2.34516    4.96475
      H1    17.24102   -2.70424    5.69193
       H    13.69100    0.91676    7.85311
       O    13.98547    0.11501    7.35173
      H1    14.68942    0.44996    6.77101
       H    19.80698   -2.37441   18.65976
       O    19.86636   -1.45297   18.45654
      H1    19.14453   -0.99989   18.92198
       H    17.63271    0.87521    8.07823
       O    16.95485    0.83040    8.79516
      H1    16.44113    0.02281    8.78886
       H    15.33395    6.61589    6.70534
       O    15.76459    6.54517    5.87348
      H1    15.06981    6.63211    5.23071
       H    15.76468   -4.48254    8.54422
       O    16.25435   -3.68308    8.70876
      H1    16.84248   -3.84575    9.43983
       H    15.43322   -0.34707   11.38118
       O    16.10918   -0.00903   12.05127
      H1    16.94992   -0.17064   11.59538
       H    18.86905    0.23114    6.71983
       O    18.61948    1.14647    6.56582
      H1    19.48962    1.57986    6.53235
       H    19.75745   -3.45381    3.85414
       O    18.83902   -3.53209    3.46358
      H1    18.18121   -3.03026    3.97657
       H    13.60809   -5.40507    7.81064
       O    14.46367   -5.73736    8.05391
      H1    14.67059   -6.34283    7.33627
       H    18.90429   -4.17299   14.84688
       O    17.96435   -4.00772   15.01096
      H1    17.82459   -3.11331   14.64248
       H    15.27831   -7.23955   13.03275
       O    15.41110   -6.54849   12.36475
      H1    15.02447   -5.74720   12.75264
       H    16.27900    2.45978   10.57096
       O    16.35684    2.57538   11.50650
      H1    16.26184    1.64531   11.85384
       H    11.77559    0.26838    7.38054
       O    10.85119    0.27098    7.47238
      H1    10.51481   -0.27791    6.74479
       H    19.30278    2.65645   18.54541
       O    18.77563    1.85631   18.31751
      H1    18.86300    1.21156   19.06378
       H    11.99575   -0.42491   10.70862
       O    11.80236    0.48889   10.95451
      H1    11.07687    0.60734   11.56355
       H    19.41646   -8.43328    6.23753
       O    18.90962   -8.00991    6.90751
      H1    19.24415   -7.12001    6.86936
       H    12.82452    6.07872   13.20964
       O    13.49552    5.62435   12.67970
      H1    14.06451    5.12264   13.32709
       H    17.08678    0.64704    5.89032
       O    16.30059    0.32707    5.48419
      H1    15.74802    1.11498    5.32633
       H    16.25152   -6.53495   16.40680
       O    16.49668   -5.66156   16.65770
      H1    17.15209   -5.39499   15.96628
       H    18.37632   -7.08731   11.06389
       O    18.24146   -6.33873   11.67572
      H1    17.27518   -6.40066   11.79594
       H    18.55622   -7.08229   13.43132
       O    18.45144   -7.41970   14.34007
      H1    19.00367   -6.78413   14.83064
       H    19.66549   -0.33075   14.96790
       O    19.20407   -1.13494   14.70572
      H1    18.27492   -0.91625   14.57486
       H    17.99873    7.36055   14.73674
       O    18.85009    7.35573   15.20011
      H1    18.84268    7.63915   16.11322
       H    14.02831   -4.34408   14.47932
       O    14.30339   -4.10468   13.56515
      H1    15.01651   -3.45569   13.69050
       H    11.59198   -2.39180    9.79922
       O    12.40410   -1.89757   10.07189
      H1    13.17971   -1.97451    9.47446
       H    16.17509    8.67184   14.52761
       O    16.49803    7.93043   14.03247
      H1    16.21947    7.97859   13.10712
       H    10.88021    4.34497   10.67357
       O    11.13589    5.01662   11.31230
      H1    12.01605    4.77265   11.63080
       H    15.49762    5.28741   15.63201
       O    16.11660    5.21000   16.35457
      H1    15.69487    5.05949   17.19739
       H    12.16941    2.54450    8.50824
       O    12.87202    2.01234    8.96366
      H1    12.53741    1.58903    9.76018
       H    13.23001    6.07396    8.27230
       O    14.21217    6.03289    8.20104
      H1    14.55311    6.10527    9.08301
       H    19.69205    8.92225    8.36910
       O    18.78449    8.59270    8.64386
      H1    18.93640    8.11162    9.44493
       H    18.12888    1.87253   16.55193
       O    17.65686    2.22749   15.82851
      H1    17.18303    2.98458   16.16297

