171
frame 2 | Written by MDAnalysis XYZWriter (release 2.4.3)
       H     9.02771    4.61482   -8.48168
       O     9.84429    4.70386   -7.95943
      H1     9.65715    4.41739   -7.05123
       H     8.95308   -0.95879    0.09298
       O     8.21523   -1.58298    0.10831
      H1     8.64506   -2.40036    0.27709
       H    11.90467   -1.36678   -0.01711
       O    12.45698   -1.25463   -0.83469
      H1    12.63308   -2.19940   -1.15586
       H    12.90043    3.98408    1.57235
       O    13.32655    3.76932    0.74032
      H1    14.17501    3.30995    0.94207
       H    12.46930    3.86095   -6.54301
       O    12.36027    3.92187   -5.55530
      H1    13.18715    4.43177   -5.30425
       H    12.98343    8.41771    1.43488
       O    13.13524    7.45575    1.40927
      H1    13.70997    7.34546    0.66550
       H    15.98555    2.84646   -3.13512
       O    15.20231    3.15693   -3.63843
      H1    15.51829    4.00090   -4.04972
       H    11.48837    8.15843   -1.34906
       O    11.61165    9.04153   -0.99035
      H1    10.86767    9.19442   -0.39160
       H    10.45320    2.99040   -2.33878
       O    11.09677    3.25650   -1.71211
      H1    11.79644    3.69704   -2.13218
       H    12.73983    1.96626    4.63710
       O    13.58273    2.37677    4.46877
      H1    13.25274    3.26423    4.26556
       H     8.26072    9.14282   -1.73823
       O     7.46826    9.22681   -2.27318
      H1     7.64576    9.68908   -3.18059
       H    15.36160    4.53936   -5.98170
       O    15.85406    5.05581   -5.33582
      H1    16.50655    5.67271   -5.73915
       H    13.05784    5.38232    4.22237
       O    12.59552    4.74492    3.62453
      H1    11.65007    4.74253    3.96299
       H     9.46938   -1.24218    2.83269
       O     8.89743   -0.98831    3.50317
      H1     8.08094   -0.73257    3.01639
       H     9.90654    8.48853    4.09448
       O    10.14669    7.57834    4.24871
      H1    10.33343    7.30307    3.31684
       H     5.35168    3.20165    0.78749
       O     5.77366    2.56018    0.21609
      H1     5.38253    2.81744   -0.65841
       H     9.73253    0.23086   -7.30055
       O     9.12777    0.94061   -7.24082
      H1     8.46657    0.85532   -8.01559
       H     8.76995    9.45373    0.95353
       O     9.06439    9.47732    0.03593
      H1     8.73798   10.30381   -0.24816
       H     5.63637    0.83135   -2.37137
       O     4.82957    0.33382   -2.58038
      H1     4.34849    0.42542   -1.73242
       H    15.12539    1.35888    0.72290
       O    15.42917    1.97339    0.04890
      H1    16.37765    1.90707    0.00166
       H    11.53587   -0.47857    1.73939
       O    10.89986   -1.18388    1.55880
      H1    11.18671   -1.93294    2.12683
       H    12.80263   10.85697   -3.18793
       O    12.65357    9.90507   -3.39885
      H1    12.07689    9.67994   -2.70865
       H    10.33744    4.89627    1.17932
       O    10.36160    3.92909    0.92530
      H1    10.67409    3.77191    0.01560
       H     8.24201    6.85911    4.38957
       O     7.45710    6.53687    3.88903
      H1     7.77950    6.69249    2.98789
       H     7.30936    7.37370    0.42894
       O     7.80465    6.74272    0.94616
      H1     7.77756    5.99037    0.37874
       H     7.12425    1.35823    1.30049
       O     7.06064    1.03321    2.17222
      H1     7.01608    1.76572    2.79450
       H     9.64369    1.07618   -3.75113
       O    10.21842    0.65799   -3.11983
      H1    11.11031    0.80492   -3.39868
       H    14.40913    1.31165   -1.38453
       O    14.18095    0.58883   -2.03264
      H1    13.43592    0.09884   -1.58116
       H    12.23370    1.79302    0.15672
       O    11.67385    1.48927    0.87406
      H1    11.36251    2.29874    1.27432
       H    12.94499    2.25477   -4.64463
       O    12.69797    1.37348   -4.23908
      H1    13.31456    1.43327   -3.47648
       H     5.10866    3.89479   -5.39657
       O     5.81784    3.69605   -6.03233
      H1     6.38085    3.01088   -5.66045
       H    11.97232    5.91832   -1.90819
       O    11.14953    6.43222   -2.07197
      H1    11.44851    6.75755   -2.93341
       H     9.51961    4.81105   -4.53278
       O     9.99533    4.96947   -5.38167
      H1    10.89891    4.53478   -5.30465
       H     7.62849    2.05535   -3.06836
       O     7.16377    1.49730   -2.47340
      H1     7.74301    1.28058   -1.71141
       H     8.67601   -1.71164   -1.97458
       O     9.34662   -1.89246   -2.62063
      H1     9.86607   -1.09974   -2.76417
       H    15.05345   -0.78270    0.47552
       O    15.08015   -0.35882    1.37062
      H1    14.38907   -0.85891    1.82847
       H    12.16818   -3.51180   -4.42170
       O    12.28820   -2.56398   -4.57575
      H1    12.39001   -2.55620   -5.56836
       H    12.64104    0.43647   -5.95534
       O    12.29212    0.11180   -6.76295
      H1    12.86204    0.64700   -7.34236
       H    14.38888   -0.41124   -3.50821
       O    14.81686   -1.02951   -4.04871
      H1    14.01051   -1.50828   -4.42190
       H     3.92261    3.90311   -1.88798
       O     4.87745    3.98011   -2.01654
      H1     5.19116    4.68738   -1.51598
       H     7.34431    6.07129   -2.78181
       O     6.65376    6.58588   -2.41642
      H1     7.09968    7.42463   -2.41640
       H     9.90965    6.98448    1.01516
       O    10.53484    6.60038    1.64023
      H1    11.48107    6.87295    1.50374
       H    14.21087    3.29739   -7.81950
       O    15.01804    3.44851   -7.26635
      H1    15.26834    2.48910   -7.06156
       H    15.62237    0.08762   -6.85971
       O    15.44859    0.65858   -6.09160
      H1    15.28824    0.04027   -5.35805
       H    15.53082    6.52358   -0.22880
       O    14.69781    6.80442   -0.51849
      H1    14.28578    6.05946   -0.97802
       H    14.11132    9.18533   -2.57924
       O    14.75867    8.49100   -2.61391
      H1    14.64000    8.06665   -1.73478
       H    14.89962    6.35959   -4.68035
       O    13.98531    6.74469   -4.58667
      H1    14.12943    7.45700   -3.94972
       H    11.52940    3.81877   -8.25405
       O    12.35673    3.36894   -8.15672
      H1    12.48738    2.66200   -8.82480
       H    10.83190    0.68187    5.50363
       O    10.95127    0.96771    4.55565
      H1    10.21835    0.58461    4.09427
       H     7.46129   -0.13885   -4.68693
       O     7.88485   -1.01046   -4.87544
      H1     8.41312   -1.29844   -4.15997
       H     8.68650    1.84133   -5.73857
       O     8.43543    2.48725   -5.10920
      H1     8.83597    3.30306   -5.47866
       H    10.49427    6.84174   -5.54777
       O    10.98101    7.65025   -5.76829
      H1    11.26181    7.64706   -6.73399
       H    14.13880    4.51284   -2.31107
       O    13.46523    4.85107   -1.75828
      H1    13.34473    4.36181   -0.91307
       H     7.30066    3.57577   -0.25610
       O     7.92744    4.30776   -0.26610
      H1     8.78753    3.94438    0.02893
       H    10.02546    2.71790    4.75459
       O    10.10031    3.66556    5.04782
      H1     9.32618    4.12522    4.77275
       H     9.57226    5.17622   -2.57651
       O     8.85572    4.64888   -3.00261
      H1     8.21145    4.70678   -2.31097
       H     9.97014    0.94127   -1.36449
       O     9.32408    1.02497   -0.64755
      H1     9.89046    1.22348    0.13556

