171
frame 11 | Written by MDAnalysis XYZWriter (release 2.4.3)
       H    -4.17505    6.37494   -8.42057
       O    -4.23080    5.65583   -7.78923
      H1    -5.09272    5.72163   -7.30367
       H     0.42734   14.35164   -1.51566
       O    -0.11764   13.93462   -2.21116
      H1    -0.83634   14.53966   -2.41737
       H     3.30617    9.20539   -3.44933
       O     3.06587    9.49052   -4.34995
      H1     3.10804    8.64422   -4.88536
       H     2.73045   16.78783   -3.33783
       O     3.32565   16.25683   -3.90919
      H1     2.88173   15.42318   -4.04365
       H     7.13949   10.35454   -2.32348
       O     6.34915    9.80681   -2.13788
      H1     5.77141    9.80954   -2.92242
       H    -7.28975    8.97682   -5.05387
       O    -6.65652    9.11903   -5.79320
      H1    -7.11246    8.85215   -6.61121
       H    -0.00715    8.70278   -6.37378
       O    -0.18507    8.14937   -7.12846
      H1    -0.49180    8.89799   -7.68570
       H     0.56654    5.11028   -7.96600
       O     1.43025    5.05091   -8.32666
      H1     1.18856    5.19842   -9.23348
       H    -3.95010    8.05595   -0.82296
       O    -3.65257    7.98755   -1.72755
      H1    -4.23842    7.33730   -2.08753
       H    -3.57694    8.31140   -5.29342
       O    -4.00590    9.17691   -5.26083
      H1    -4.95570    9.11725   -5.31785
       H    -3.65753   10.00867   -3.40929
       O    -3.56058   10.84348   -2.91411
      H1    -3.90328   10.70657   -1.97829
       H     3.83192    6.15846   -5.17437
       O     4.11898    7.03840   -5.46532
      H1     3.99598    7.05177   -6.39845
       H    -2.21069   15.37680   -3.45268
       O    -1.58580   16.04274   -3.07148
      H1    -1.46569   16.67252   -3.81987
       H    -4.09195    5.80633   -4.04593
       O    -4.65533    5.18752   -3.46154
      H1    -5.24139    5.67313   -2.88674
       H     5.73663   12.95701   -1.62085
       O     5.08779   12.25287   -1.34379
      H1     5.50739   11.41408   -1.66471
       H     0.47367    6.88747    0.93937
       O     1.34081    6.46548    0.96296
      H1     1.84575    7.21532    1.28899
       H    -1.25473    6.32254    2.44059
       O    -1.55418    6.16274    1.53420
      H1    -2.28802    5.57157    1.46513
       H     4.64623    5.69447   -2.43504
       O     4.43026    4.79712   -2.19117
      H1     4.46385    4.87564   -1.22232
       H     2.69750   10.33670   -8.64453
       O     3.56581   10.66617   -8.32763
      H1     3.84095   11.32602   -8.92072
       H     0.59770   15.07848   -5.38988
       O     0.22289   15.28037   -6.25977
      H1     0.85652   14.74445   -6.79494
       H     2.29414    7.01899   -8.36574
       O     2.20711    7.88880   -8.74964
      H1     1.37591    8.09711   -8.24864
       H     2.25507    4.49764   -2.35770
       O     1.56815    3.76754   -2.37249
      H1     1.59598    3.43998   -3.28057
       H     2.21352   10.81845   -5.51362
       O     1.37499   11.19940   -5.84111
      H1     0.70929   10.63855   -5.35762
       H    -0.25693   11.59582   -2.28404
       O    -0.58965   10.82094   -2.78851
      H1    -1.50981   10.80267   -2.76199
       H     4.36160    8.19386   -0.83030
       O     3.90420    8.51097   -1.60537
      H1     3.25539    7.84589   -1.87723
       H    -3.62139    3.44632   -1.29332
       O    -2.65024    3.31488   -1.31748
      H1    -2.13270    4.05669   -1.61619
       H    -1.64428    9.41521  -10.98330
       O    -2.20718   10.20806  -11.19798
      H1    -2.48300   10.55494  -10.31226
       H    -4.84137   11.86022   -3.73585
       O    -5.31231   12.68301   -3.83445
      H1    -6.21832   12.45733   -3.88917
       H    -1.09114   12.60561   -0.34267
       O    -0.78134   11.92542    0.21079
      H1    -0.17116   11.37346   -0.22961
       H     4.86481   11.89753   -3.61238
       O     5.14227   11.23771   -4.24114
      H1     4.28552   10.77738   -4.44512
       H    -2.47180   10.82807   -6.48866
       O    -1.64332   11.21735   -6.19642
      H1    -1.40268   11.87213   -6.90799
       H     2.80601    8.24269    3.25288
       O     2.67958    8.53366    2.32888
      H1     2.06628    9.24354    2.33586
       H    -3.04981    6.26350   -5.91601
       O    -2.95373    6.78398   -5.12112
      H1    -2.03499    6.74960   -4.91388
       H    -4.56896   11.47584   -0.44696
       O    -4.56211   10.50085   -0.33308
      H1    -3.81640   10.30908    0.20263
       H    -0.65520    6.94902  -10.37378
       O    -0.58782    7.95206  -10.30013
      H1     0.31588    8.17248  -10.60783
       H    -4.20141   10.57487   -8.26419
       O    -3.49023    9.97560   -8.00614
      H1    -3.76440    9.65842   -7.13509
       H    -0.71082    6.00672   -0.99635
       O    -0.80313    5.29671   -1.64954
      H1     0.05473    4.84218   -1.69471
       H     4.25991    3.93380   -4.94720
       O     3.42514    4.28898   -5.26139
      H1     2.92085    3.49384   -5.33393
       H    -2.11007    9.32674    1.91897
       O    -2.43347    9.90697    1.18533
      H1    -1.78217   10.63964    1.01400
       H     1.45860    6.49783   -3.06122
       O     1.93367    6.79654   -2.24742
      H1     1.33169    6.99376   -1.53297
       H    -1.17044    7.83535    0.28457
       O    -0.56019    7.95719   -0.46860
      H1    -1.14714    8.32170   -1.18583
       H     0.70662   11.01670    3.02752
       O     1.09962   10.99489    2.13835
      H1     0.49687   11.52129    1.57773
       H     0.07025   13.23151   -8.82916
       O     1.02083   13.34877   -8.62866
      H1     1.38101   13.85430   -9.34746
       H    -4.73786   13.31737   -1.65966
       O    -4.71359   13.14455   -0.74452
      H1    -4.32173   13.96103   -0.26766
       H    -4.21229    7.59987  -10.57535
       O    -4.44230    7.74214   -9.68238
      H1    -3.93122    8.53283   -9.29586
       H     1.17421   13.52486   -3.48447
       O     1.73246   13.54754   -4.23553
      H1     1.41268   12.79131   -4.76451
       H     6.13028    7.84524   -2.43448
       O     6.09706    6.95922   -2.83158
      H1     6.17720    7.16135   -3.76495
       H    -2.69660   14.02508   -5.45621
       O    -2.68276   14.62540   -6.22473
      H1    -1.73419   14.86599   -6.30152
       H     1.75982   10.33928   -1.02195
       O     1.75443   11.29902   -1.03962
      H1     2.64043   11.54079   -0.84277
       H    -3.42743   13.14116   -3.89088
       O    -2.49799   13.38896   -3.94775
      H1    -2.08085   12.55103   -4.13633
       H    -0.76562    6.22409   -6.92872
       O    -1.19837    5.33649   -6.98285
      H1    -1.62764    5.28001   -7.85164
       H     1.13017   10.82613   -7.65906
       O     0.93961   10.75177   -8.60555
      H1     1.10315   11.69131   -8.83582
       H    -2.60962   13.07450   -9.58414
       O    -1.95519   13.24315   -8.85762
      H1    -2.48178   13.58379   -8.13105
       H     4.74178    7.13832   -8.60176
       O     4.94825    7.91105   -8.08420
      H1     4.12881    8.45223   -8.12303
       H    -0.52651    5.96371   -3.46284
       O    -0.21463    6.42158   -4.28197
      H1     0.03797    7.32254   -4.11050
       H     1.13803    9.32064   -4.46667
       O     0.22882    9.07176   -4.53945
      H1    -0.20223    9.71516   -3.95583
       H    -1.69014    2.59574   -5.28697
       O    -1.17036    2.80382   -6.07618
      H1    -1.13901    3.80404   -6.04556

