171
frame 8 | Written by MDAnalysis XYZWriter (release 2.4.3)
       H     7.94239    4.48772  -13.83404
       O     7.74108    4.29927  -12.86280
      H1     8.02397    5.16604  -12.45380
       H     8.00265    8.74767  -13.31503
       O     9.00430    8.72456  -13.19811
      H1     9.11218    8.31660  -12.29232
       H    12.88735    9.88878  -13.75606
       O    13.32887   10.29037  -14.51508
      H1    13.87551   10.95258  -14.11358
       H    14.97463    2.62279  -17.36329
       O    15.63613    3.15430  -17.83846
      H1    16.13681    2.58319  -18.42788
       H    12.40196   12.75464  -16.67594
       O    12.92154   13.56183  -16.68325
      H1    13.40277   13.60292  -15.88948
       H    14.67505   -1.32907  -15.22740
       O    14.25268   -0.58795  -14.75611
      H1    15.00313    0.02823  -14.41456
       H    13.12018    1.22380  -17.43238
       O    13.76333    1.47044  -16.72761
      H1    13.80819    0.77493  -16.07434
       H     7.15854    2.15652  -17.32001
       O     6.50066    1.49387  -17.59832
      H1     5.81852    2.11751  -18.01707
       H    15.14627    6.94484  -17.06188
       O    15.42134    7.65230  -17.75960
      H1    15.92617    7.13045  -18.39311
       H    12.53174    3.31514  -13.54927
       O    12.94801    2.89944  -12.80565
      H1    13.88789    2.93281  -13.00430
       H    10.11682   -0.83398  -17.57776
       O    10.54055   -0.42043  -16.81215
      H1    10.35736   -0.99092  -16.07748
       H     9.77325   11.98664  -10.63394
       O    10.24999   12.38500  -11.41086
      H1    10.13680   11.82443  -12.21223
       H    18.45967    5.06317  -18.44994
       O    19.16227    4.67958  -17.83492
      H1    19.99021    4.67953  -18.27284
       H     7.98089    8.89291  -17.04390
       O     8.83846    9.24632  -16.95774
      H1     9.24867    9.19798  -17.81373
       H    16.74352   10.61425  -17.18226
       O    16.54248   11.52898  -17.22185
      H1    17.32217   11.82487  -17.78517
       H    11.95978    6.31703  -15.62249
       O    12.20527    6.13007  -16.51038
      H1    12.16883    5.14097  -16.39260
       H    13.59777    7.47064  -13.29068
       O    12.80220    7.87686  -13.05867
      H1    12.16692    7.20059  -12.81925
       H     7.60627    4.77449  -16.63668
       O     7.45749    5.21964  -15.76130
      H1     8.27486    5.79379  -15.74823
       H     9.72486    1.17509  -16.56812
       O     9.43883    2.02436  -16.21915
      H1     9.40292    1.82162  -15.31934
       H    15.24882    8.67461  -16.33994
       O    15.40618    9.30285  -15.60298
      H1    14.52405    9.53366  -15.21909
       H    17.99659    8.52652  -18.42444
       O    18.23720    8.90922  -17.58845
      H1    19.06169    9.44373  -17.82954
       H     7.63074    7.07119  -10.22346
       O     7.56145    6.75465  -11.13844
      H1     6.65439    6.55419  -11.38329
       H    10.39033    8.27164   -9.69516
       O    10.42163    8.36510  -10.63475
      H1    11.03792    7.67544  -10.89353
       H    15.47947   11.66865  -15.52458
       O    15.18705   12.33283  -14.89726
      H1    15.59067   11.95961  -14.12760
       H     9.44002   13.81854  -17.76450
       O     9.08001   12.98546  -17.82613
      H1     8.98595   12.64782  -16.93172
       H    11.12169    6.00667  -19.33577
       O    10.53248    5.85420  -18.56837
      H1    11.13645    6.08397  -17.81727
       H     9.07203    3.43434  -17.34576
       O     8.51165    3.88249  -18.04524
      H1     9.10778    4.60117  -18.30138
       H     9.69255   11.44335  -18.68463
       O     9.99121   10.67903  -19.13850
      H1    10.96845   10.80546  -19.19123
       H    16.49252    4.71042  -19.26942
       O    16.82979    5.62706  -19.19359
      H1    16.64678    6.12201  -20.10297
       H     8.46790    2.43591  -10.66568
       O     9.03426    2.39911  -11.44797
      H1     8.56537    3.04896  -12.09450
       H    17.29830    6.97757  -12.91314
       O    18.17513    6.59204  -12.71499
      H1    18.05917    5.63313  -12.96119
       H     5.08870    5.09789  -14.30779
       O     4.45765    4.97211  -15.01837
      H1     4.90366    4.95862  -15.83419
       H    15.79815    8.24319  -12.55768
       O    15.50464    7.67261  -13.30770
      H1    15.48540    8.29567  -14.08598
       H    10.82133   11.02622  -14.58966
       O    10.26494   11.08177  -13.73380
      H1     9.93052   10.21174  -13.43901
       H    15.22058    3.68723  -14.48885
       O    15.46028    3.06699  -13.81736
      H1    15.66843    2.25863  -14.16125
       H    13.43071    0.00882  -13.27019
       O    13.09162    0.23751  -12.36389
      H1    12.85919    1.17328  -12.41959
       H    10.05426    6.29360  -11.89029
       O    10.95692    5.97328  -12.00837
      H1    11.13352    5.54333  -11.19873
       H     9.40886    7.89389  -16.04639
       O     9.61110    7.12662  -15.47173
      H1     9.47435    7.52232  -14.62133
       H     9.57399    0.08785  -13.74330
       O     8.93694    0.78564  -13.62154
      H1     8.85688    1.14597  -12.75807
       H    12.73861    2.75182  -16.23833
       O    12.03283    3.32343  -15.86404
      H1    11.20634    2.89799  -15.90196
       H    15.30014    9.09065  -10.61806
       O    16.12821    9.43989  -10.92962
      H1    16.04918   10.17956  -11.58072
       H    13.46068    0.60264  -19.66828
       O    12.72372    0.55706  -19.05299
      H1    12.72035   -0.42161  -18.83337
       H    13.84306   12.95290  -18.04648
       O    14.16243   12.66723  -18.91190
      H1    14.98476   12.19192  -18.70304
       H    18.51599    5.98453  -16.45172
       O    17.82666    6.19923  -15.85083
      H1    17.97791    7.12636  -15.55792
       H     5.61547    8.11320  -17.36814
       O     5.92317    8.78360  -16.77049
      H1     5.77124    9.57249  -17.19249
       H    16.56923    4.11098   -9.19996
       O    16.76737    4.97670   -9.65121
      H1    16.29861    4.82830  -10.52562
       H     6.17310    7.65783  -13.95768
       O     6.24933    8.57180  -13.61498
      H1     5.92263    8.54219  -12.70216
       H    10.69155   10.86765  -16.81231
       O    11.46652   11.34680  -16.44818
      H1    12.16172   10.75277  -16.21146
       H    16.20993    5.57635  -16.05584
       O    15.27292    5.37535  -16.02295
      H1    15.18132    4.66764  -16.65505
       H    13.12330    3.40463  -10.79668
       O    13.02398    3.31811   -9.83364
      H1    12.67696    2.47464   -9.59913
       H    12.64676    6.63253   -9.16307
       O    12.00159    5.89847   -9.26345
      H1    12.53944    5.23192   -9.64748
       H     8.84799   11.59633  -14.75518
       O     8.06689   12.01402  -15.15153
      H1     7.28741   11.51494  -14.90003
       H    17.51768    9.89542  -14.72073
       O    18.41159    9.76802  -15.02573
      H1    18.29531    9.34761  -15.88552
       H    15.34854    6.01577  -12.38988
       O    15.36063    5.16112  -11.94431
      H1    15.85239    4.64429  -12.65165
       H    19.48792    1.94154  -17.49409
       O    18.51890    1.93943  -17.52523
      H1    18.25751    2.88038  -17.57507
       H    17.82702    3.21954  -13.62000
       O    18.30092    3.67874  -12.86678
      H1    19.20924    3.45044  -12.95454
       H    13.28287   11.16974  -19.58579
       O    12.62235   10.44535  -19.55692
      H1    12.98416    9.69810  -20.05176

