171
frame 6 | Written by MDAnalysis XYZWriter (release 2.4.3)
       H     7.25616   -8.03319  -13.03942
       O     7.12472   -8.95541  -12.84190
      H1     7.94101   -9.37280  -12.47903
       H     3.36774   -6.16790   -6.74181
       O     3.38319   -5.32090   -7.23320
      H1     2.47840   -5.33597   -7.58585
       H     2.94417  -17.07108  -10.60417
       O     2.57038  -17.92665  -10.65251
      H1     2.46721  -18.11373  -11.59311
       H     1.41965  -11.46089   -6.82400
       O     1.11472  -12.12027   -7.45278
      H1     0.67028  -12.78092   -6.87190
       H     7.53907  -10.11999   -9.60223
       O     7.59684   -9.27000   -9.05222
      H1     7.79303   -8.60478   -9.70339
       H    -0.41061   -9.16519  -11.22475
       O     0.49255   -9.16697  -11.53799
      H1     0.45387   -9.56066  -12.43293
       H     3.20328   -4.55530  -11.77035
       O     2.60837   -4.64353  -12.56534
      H1     1.83334   -5.19765  -12.32298
       H     2.74704  -11.14673   -5.04363
       O     1.79397  -10.86643   -5.14170
      H1     1.28458  -11.50248   -4.64765
       H     6.38389  -13.74147  -12.74444
       O     5.44443  -13.66995  -12.54190
      H1     5.16403  -12.75052  -12.71125
       H    -1.14410   -6.34950  -10.67785
       O    -1.83041   -6.17945  -10.05424
      H1    -2.61527   -5.90549  -10.59320
       H     5.14558  -11.62029  -14.62042
       O     5.18106  -11.69533  -15.54103
      H1     5.49137  -12.56068  -15.73301
       H     3.23093   -9.36151   -8.37606
       O     2.96504   -8.49176   -8.64357
      H1     3.72597   -8.06967   -9.07046
       H     1.06666   -7.50468  -11.30762
       O     1.04729   -6.55126  -11.01819
      H1     1.77647   -6.41457  -10.44239
       H    -1.10838  -14.52336   -5.65540
       O    -0.79002  -13.58684   -5.80374
      H1    -1.47076  -12.96613   -6.15991
       H     6.63882  -17.23624   -9.25304
       O     6.93354  -16.52188   -9.83920
      H1     6.19139  -16.44263  -10.49838
       H     6.32219  -16.04215   -6.03354
       O     5.64560  -16.70889   -5.98203
      H1     4.82833  -16.41369   -6.42097
       H     4.82568  -13.09797   -7.73333
       O     5.33631  -12.91450   -6.96012
      H1     4.78777  -12.25048   -6.57334
       H     3.80271  -10.08157  -15.75004
       O     3.24132   -9.28550  -15.69491
      H1     3.71943   -8.81944  -15.01983
       H     1.52749  -15.40064  -14.94908
       O     2.11634  -15.24290  -15.68873
      H1     2.92479  -15.66676  -15.31309
       H     6.98687   -5.89187   -8.84818
       O     6.43836   -5.61310   -8.09342
      H1     5.92855   -4.80233   -8.35788
       H    10.68471  -12.69308   -8.53888
       O     9.76341  -12.54924   -8.74900
      H1     9.41866  -13.40967   -8.94743
       H     6.60973  -14.39720   -7.60595
       O     7.33815  -15.01258   -7.54533
      H1     7.22854  -15.46763   -8.38674
       H     4.75007  -10.42374   -4.70604
       O     4.28037  -11.21834   -5.08384
      H1     4.28286  -11.86568   -4.34326
       H     2.36521  -11.62846   -8.81332
       O     3.23128  -11.43259   -9.06701
      H1     3.16122  -11.33317  -10.04305
       H     3.93036   -7.74444   -5.22710
       O     3.33396   -7.00462   -5.03445
      H1     2.54388   -7.35035   -5.42832
       H     8.61058  -11.25775   -6.02868
       O     9.36508  -11.83917   -5.95246
      H1     9.40379  -12.20895   -6.86760
       H    -2.96441  -13.88769  -11.42227
       O    -2.10780  -14.30813  -11.32617
      H1    -1.83897  -13.82617  -10.51801
       H     1.20610  -13.49181  -16.19026
       O     1.11962  -12.54991  -16.28675
      H1     0.23085  -12.42917  -16.55010
       H     9.75107  -15.35956  -10.81677
       O     9.06437  -14.75442  -10.59566
      H1     8.35777  -15.32148  -10.31762
       H     2.22764   -8.53884   -6.95871
       O     1.49589   -8.46894   -6.35446
      H1     1.49299   -9.29664   -5.81652
       H     0.98789  -15.75613  -12.45673
       O     0.58059  -15.46387  -13.31799
      H1     0.53139  -14.50986  -13.21324
       H    -0.45414   -7.66968  -14.32703
       O     0.20430   -7.23862  -13.78079
      H1     0.97380   -7.80892  -13.80840
       H    -0.30330  -11.39962  -10.37309
       O    -0.45444  -12.14963   -9.77972
      H1     0.18212  -12.07916   -9.04302
       H     5.65328   -7.71680  -15.01117
       O     6.02835   -7.69543  -15.87837
      H1     5.68301   -6.94258  -16.32553
       H     8.97508   -6.93691   -9.22429
       O     8.28727   -6.71735   -9.89085
      H1     8.59478   -5.87566  -10.33623
       H     5.02435  -17.09348  -12.27204
       O     4.85802  -16.34749  -11.64626
      H1     4.95037  -15.53749  -12.11926
       H    -3.51759  -12.25594   -8.44272
       O    -4.27369  -12.79074   -8.89661
      H1    -4.98749  -12.16317   -9.07440
       H    -1.41573  -11.82247   -8.39301
       O    -2.19844  -11.63609   -7.73059
      H1    -1.98982  -10.83367   -7.18413
       H     5.79226  -10.21663  -12.94416
       O     5.07356  -10.84694  -12.93244
      H1     4.27504  -10.32966  -12.66645
       H     0.77967  -17.70004  -10.16181
       O    -0.14179  -17.56776  -10.07006
      H1    -0.60159  -18.41203  -10.05874
       H    -2.35313  -10.97023  -12.81536
       O    -1.57114  -11.48543  -12.64628
      H1    -1.77454  -12.29978  -12.19470
       H     6.47503  -10.74710   -5.91559
       O     6.99019  -10.02137   -6.23184
      H1     6.73152   -9.93066   -7.10971
       H     2.76722  -15.30312   -3.64261
       O     2.51840  -14.53170   -4.24379
      H1     1.69789  -14.13237   -3.96533
       H     4.49794   -6.55841  -13.96317
       O     4.31855   -7.45888  -13.60298
      H1     4.82850   -7.54519  -12.76843
       H     0.69655  -16.36606   -7.31717
       O     0.22320  -17.16071   -7.45077
      H1     0.14815  -17.22988   -8.44865
       H     2.82959  -14.49242  -10.18314
       O     2.06538  -15.09630  -10.18894
      H1     1.24575  -14.64290  -10.33367
       H     4.92706  -13.23161  -10.08722
       O     4.58152  -14.05624   -9.64119
      H1     5.04145  -14.69403  -10.22318
       H     8.13662  -14.81256  -13.50701
       O     8.14678  -13.86456  -13.15134
      H1     8.49366  -13.84784  -12.25467
       H     2.75484  -14.73118   -7.62310
       O     2.39879  -15.38481   -7.04542
      H1     2.50642  -15.04105   -6.12793
       H     0.51757   -7.63748   -7.78069
       O     0.15390   -6.73105   -8.01471
      H1    -0.54225   -6.85176   -8.71138
       H     1.17226  -12.62815  -14.39524
       O     0.97612  -12.79025  -13.45042
      H1     0.12392  -12.26274  -13.34475
       H    -2.13634   -8.10392  -10.12309
       O    -2.76300   -8.85736  -10.03864
      H1    -3.60745   -8.44233   -9.83224
       H    10.02819  -10.43279  -12.06287
       O     9.24774  -10.76698  -12.48546
      H1     9.63296  -11.58117  -12.90091
       H     6.35219   -8.82135   -4.84278
       O     5.57294   -8.61957   -4.29809
      H1     5.76586   -8.13782   -3.48182
       H     5.48593   -6.72043   -9.20973
       O     5.12496   -7.35473   -9.87026
      H1     5.84278   -7.96926   -9.88121
       H     0.85303  -10.77520  -14.45308
       O     1.18675   -9.96736  -14.06148
      H1     1.89724   -9.74981  -14.68081
       H     2.56364  -11.44754  -12.44506
       O     2.67284  -10.95973  -11.63379
      H1     1.97351  -10.27994  -11.55922

