171
frame 11 | Written by MDAnalysis XYZWriter (release 2.4.3)
       H   -15.31494   14.43437    3.89038
       O   -15.43864   14.69592    4.83637
      H1   -15.92728   15.54514    4.73896
       H   -12.80085    9.91356    3.66175
       O   -13.60803   10.19513    3.23187
      H1   -13.31816   10.79513    2.57695
       H   -17.18973   13.80660    4.82492
       O   -17.90933   13.43632    4.33394
      H1   -17.46844   12.75363    3.77110
       H   -17.13499    7.41757    8.99921
       O   -16.64614    7.75652    9.79434
      H1   -17.23713    7.47377   10.53042
       H   -13.51961   10.63280   11.70597
       O   -14.24877   10.25902   12.20138
      H1   -15.07657   10.65691   11.94005
       H   -19.51448   11.31444    9.67173
       O   -18.60266   11.24793    9.44004
      H1   -18.01707   11.51867   10.14864
       H   -13.60703    9.82937    7.35463
       O   -12.97127    9.10813    7.50963
      H1   -12.93707    9.03263    8.45511
       H   -10.11560   17.08032    7.36731
       O    -9.97411   16.15863    7.71152
      H1    -9.96908   15.59737    6.92871
       H   -15.10610    7.30225   10.93285
       O   -14.47649    7.64962   11.57386
      H1   -14.77867    8.48409   11.89593
       H   -18.98552   19.05013    5.41270
       O   -18.58653   19.85571    5.73352
      H1   -18.34397   19.65157    6.60717
       H   -15.66062   13.36729   15.03029
       O   -16.29879   13.93770   14.58478
      H1   -16.98501   14.04674   15.23487
       H   -15.93524   10.89925    9.31061
       O   -15.49414   10.15850    8.83603
      H1   -15.84156    9.32327    9.12468
       H   -11.28255   18.89420    7.29803
       O   -10.36041   18.66438    7.18636
      H1   -10.06676   19.23761    6.45658
       H   -13.89047   16.93192    8.98415
       O   -14.76716   17.36324    9.29441
      H1   -14.58029   17.81743   10.11246
       H   -14.86638   17.78113    2.38451
       O   -15.35414   18.42647    2.96375
      H1   -16.25769   18.24450    2.75409
       H   -17.82350   17.29087    9.40806
       O   -18.21742   18.07506    9.67256
      H1   -19.12604   17.99003    9.37781
       H   -19.43456   18.92725    0.08587
       O   -18.96979   19.45429    0.75193
      H1   -19.69526   19.79600    1.28065
       H   -18.26422   18.30198    2.27981
       O   -18.11801   17.56976    2.91771
      H1   -18.75244   16.88519    2.69053
       H   -19.10943   14.39285   -0.08277
       O   -18.81195   13.74116    0.55470
      H1   -19.09121   14.06796    1.39795
       H   -13.56633   16.07447   14.22022
       O   -14.45595   15.90636   13.79553
      H1   -14.81945   15.29893   14.39848
       H   -17.64727   12.19795    1.45557
       O   -16.92797   12.11818    2.03703
      H1   -16.81655   11.14161    2.08300
       H   -16.74533   10.36847   14.56721
       O   -17.58180   10.83641   14.59340
      H1   -17.64723   11.25642   15.46565
       H   -16.23203   17.68200    5.53512
       O   -16.95880   17.07956    5.30791
      H1   -17.17180   17.27030    4.35592
       H    -9.71377   15.81437    3.90808
       O    -9.97390   16.66532    4.31436
      H1   -10.82789   16.61288    4.73677
       H   -18.96605   10.02823    1.85728
       O   -19.10744    9.12608    1.42096
      H1   -20.09270    8.99386    1.55405
       H   -16.27431   12.45138   11.78401
       O   -16.80790   11.61471   11.86072
      H1   -17.21895   11.76149   12.75146
       H   -13.85192   17.21086   12.02260
       O   -14.16114   18.11141   11.80155
      H1   -13.49788   18.77179   11.97506
       H   -12.43208   13.69270   12.33393
       O   -12.53759   14.35815   11.59708
      H1   -12.34803   13.96273   10.75344
       H   -18.04932    5.95998    5.90784
       O   -18.51429    6.59472    6.45895
      H1   -18.02504    7.42103    6.35263
       H   -15.78010   10.27677    0.54269
       O   -15.40845   10.73558   -0.21414
      H1   -16.06865   10.71263   -0.92719
       H   -12.58850   14.84371    8.71682
       O   -12.50333   15.69274    8.37553
      H1   -11.57890   15.83958    8.10338
       H   -16.02610   14.74677    1.15660
       O   -15.49955   14.43479    1.87932
      H1   -15.68565   13.48883    1.87051
       H   -18.07616   12.10083    5.56769
       O   -18.13682   11.25476    6.02148
      H1   -17.89861   11.48103    6.92396
       H   -19.03248   12.22401   -2.24376
       O   -19.33017   11.79668   -1.36834
      H1   -19.24511   12.42422   -0.67108
       H   -11.15343   13.19188    6.41737
       O   -10.50516   13.79657    5.94535
      H1    -9.78556   13.47621    6.52999
       H   -18.81566   13.71600    8.31774
       O   -18.50119   13.76409    7.40787
      H1   -18.95832   14.50539    7.00992
       H   -15.42072   18.52230   13.13844
       O   -16.03288   18.78210   13.86711
      H1   -16.90218   18.43530   13.60387
       H   -14.75504   17.92910    7.34984
       O   -14.60648   18.22431    6.44856
      H1   -13.90714   17.59032    6.18617
       H   -18.21925    6.39505   12.03226
       O   -17.71566    7.26126   12.27028
      H1   -17.95020    7.70463   13.08918
       H   -14.71590   14.36726   11.66890
       O   -15.46948   14.03149   11.17347
      H1   -16.16452   14.76515   11.14916
       H   -17.31208   14.70830   13.09927
       O   -18.07789   14.87327   12.55652
      H1   -18.26011   15.83675   12.46554
       H   -12.45874   11.65049    0.82388
       O   -13.22393   11.99080    1.31112
      H1   -13.97437   11.73550    0.80156
       H   -14.02275   13.46931    6.23704
       O   -13.58585   12.77075    6.71617
      H1   -14.14449   11.98579    6.48003
       H   -15.57958    9.23689    2.75397
       O   -16.37819    9.38033    2.28046
      H1   -16.96153    8.62596    2.20867
       H   -17.11760    8.83023    4.99340
       O   -16.96794    8.84629    5.91617
      H1   -17.29539    9.75539    6.09082
       H   -15.45381    9.84519    5.87981
       O   -14.75809   10.55797    5.84733
      H1   -14.35193   10.38551    4.98444
       H   -17.13828   15.16845    8.85083
       O   -16.97563   15.83826    9.52946
      H1   -16.16585   16.29505    9.28862
       H   -12.87194   15.59274    6.55060
       O   -12.95650   16.12730    5.70508
      H1   -13.27636   15.51032    5.08277
       H   -18.41844   16.65369    6.42721
       O   -19.28324   16.32206    6.67120
      H1   -19.61569   16.99257    7.29860
       H   -18.55066    9.42448   -0.33665
       O   -18.03895    9.04435   -1.05488
      H1   -17.74935    8.20850   -0.69064
       H   -18.36039   18.02230   11.47404
       O   -18.45794   17.97608   12.43452
      H1   -18.73385   18.86518   12.64007
       H   -18.18214   16.00541   -1.64480
       O   -18.80866   15.30592   -1.81865
      H1   -19.72469   15.63165   -1.77249
       H   -19.03594    9.63661   10.54661
       O   -19.38610    9.16855   11.28363
      H1   -18.60404    8.65821   11.58281
       H   -12.32874   13.40871    1.23477
       O   -11.66274   14.14317    1.44464
      H1   -11.12106   14.26051    0.58530
       H   -19.05083   14.35723   10.96648
       O   -19.58942   14.10474   10.25688
      H1   -20.14478   13.49588   10.72219
       H   -12.58878   11.72322   10.16656
       O   -11.81264   11.18109   10.40886
      H1   -12.00795   10.22961   10.48934
       H   -14.32026   13.45613    9.75110
       O   -13.44422   13.18728    9.34189
      H1   -13.57300   13.04419    8.44411

