171
frame 5 | Written by MDAnalysis XYZWriter (release 2.4.3)
       H     0.58507   -8.13024    1.77858
       O     1.12469   -8.80732    1.30874
      H1     1.93439   -8.27343    1.10390
       H     2.75459   -5.33931   -6.04353
       O     2.91994   -4.55222   -6.56725
      H1     2.18359   -4.57028   -7.19714
       H     1.79440  -12.11585   -6.29309
       O     1.53656  -12.81011   -6.91335
      H1     0.75223  -13.22324   -6.52878
       H     6.21622   -1.64950   -3.42190
       O     5.79018   -2.27255   -4.01856
      H1     5.71965   -3.07067   -3.44767
       H    -0.61905   -8.47681   -2.19624
       O     0.01296   -8.65062   -2.94943
      H1    -0.49424   -9.10876   -3.61163
       H    -0.45830   -1.94001   -5.18200
       O    -1.21124   -1.85578   -4.54444
      H1    -0.75225   -1.59432   -3.75467
       H     0.05689   -6.91536   -3.30640
       O     0.37788   -6.00053   -3.36668
      H1     1.33631   -6.07082   -3.65688
       H    -2.95843   -4.69873   -7.62779
       O    -3.59942   -5.29525   -7.21626
      H1    -3.99499   -5.94093   -7.90552
       H     3.83931   -4.79835  -11.12771
       O     3.48446   -4.91670  -11.99875
      H1     2.67868   -5.40344  -11.90271
       H     2.78459  -10.95036   -4.47822
       O     1.87237  -10.93669   -4.66200
      H1     1.36540  -11.39065   -3.97168
       H    -0.40387   -5.61930   -6.45837
       O    -0.41224   -5.01166   -5.71498
      H1    -0.01911   -5.49608   -4.97188
       H    -0.82138   -6.72508  -10.84912
       O    -1.43250   -7.07000  -10.19727
      H1    -2.26180   -6.45229  -10.24634
       H    -1.51990   -4.92632    0.99452
       O    -1.32907   -4.63725    0.08528
      H1    -0.37583   -4.62552   -0.01744
       H     0.26962   -3.58285   -6.28159
       O     0.60515   -2.71571   -6.63512
      H1     1.16218   -2.87651   -7.45816
       H     6.44371  -10.14634   -0.52186
       O     7.29854  -10.36581   -0.99523
      H1     7.45805   -9.56273   -1.53648
       H     5.53675  -12.96913   -3.38004
       O     4.70045  -12.56136   -3.43656
      H1     4.00073  -13.19492   -3.56506
       H     3.87799  -10.17567   -8.89404
       O     3.48158   -9.37552   -8.51638
      H1     3.89010   -8.55297   -8.89005
       H     1.03403   -7.65768  -11.77777
       O     1.15150   -6.83685  -11.30262
      H1     1.40039   -7.06486  -10.42060
       H    -1.54655  -14.23796   -5.82981
       O    -0.89517  -13.58455   -5.66333
      H1    -1.28683  -12.70575   -5.60672
       H     2.13009   -2.51212   -1.06687
       O     2.66362   -3.01971   -1.74186
      H1     2.39932   -2.81586   -2.66619
       H     0.21314  -13.11600   -4.37242
       O     0.58789  -12.92890   -3.49462
      H1     0.04450  -13.30962   -2.76074
       H     1.58727   -4.42704   -1.12717
       O     1.07251   -5.19304   -0.87741
      H1     0.69866   -5.46636   -1.71725
       H     5.21110   -3.78535   -9.58770
       O     4.54590   -4.46802   -9.73431
      H1     3.83095   -4.20824   -9.11228
       H     3.44575   -2.63176   -4.39813
       O     2.51048   -2.54226   -4.30203
      H1     2.22227   -2.69959   -5.22742
       H     5.60918  -12.38047   -7.21407
       O     6.52799  -12.68092   -7.25622
      H1     7.11229  -11.93739   -7.07150
       H     7.11686   -5.37088   -7.46108
       O     7.05103   -4.48566   -7.06229
      H1     6.16385   -4.04810   -7.03313
       H    -1.28715   -3.14921   -7.40594
       O    -2.02793   -3.40316   -7.93276
      H1    -2.79694   -2.77556   -7.75392
       H     5.45338   -9.25380   -4.39245
       O     5.23055  -10.08714   -4.84458
      H1     5.18051  -10.82350   -4.24511
       H     2.55844  -12.29844   -8.45300
       O     3.26520  -12.05299   -9.07186
      H1     2.92757  -11.93579   -9.97516
       H     9.33701   -6.80965   -4.68834
       O    10.20319   -7.21990   -4.66328
      H1    10.27382   -7.52080   -5.56047
       H     3.56532   -7.05220   -4.09206
       O     2.83012   -6.62512   -4.55689
      H1     2.57252   -7.36531   -5.11066
       H    -0.59100   -6.69221   -0.16122
       O    -0.87089   -7.62684   -0.19751
      H1    -0.09443   -8.12400    0.21622
       H     2.50308   -8.72151   -6.93843
       O     1.85961   -8.62967   -6.20920
      H1     1.65081   -9.51374   -5.94662
       H    -0.52877  -11.69278  -10.66886
       O     0.19773  -11.33026  -10.14600
      H1     0.81331  -12.01463  -10.40181
       H     0.59357   -9.56408   -1.72098
       O     0.91675  -10.15884   -1.02613
      H1     1.21556   -9.67267   -0.23634
       H     8.78848   -7.20792   -8.18833
       O     7.80931   -6.97036   -8.05275
      H1     7.54998   -6.47114   -8.82640
       H    -3.28750   -6.43966   -4.82529
       O    -3.77514   -5.87352   -4.18821
      H1    -3.45206   -4.97589   -4.36988
       H    -1.19535  -11.75600   -8.13184
       O    -1.90302  -11.53638   -7.61306
      H1    -1.63204  -10.95999   -6.86269
       H     5.11719   -5.14685   -2.97911
       O     5.83955   -4.55752   -2.74075
      H1     6.20809   -4.98637   -1.99845
       H     6.58405  -10.27315   -5.74807
       O     7.46635  -10.27680   -6.21859
      H1     7.49282   -9.61471   -6.96703
       H     3.00720  -15.27935   -3.44401
       O     2.92322  -14.55670   -4.06103
      H1     2.16801  -14.08175   -3.79668
       H    -3.89487   -7.74201   -6.07825
       O    -2.91335   -7.62213   -6.04122
      H1    -2.86638   -6.79396   -6.50302
       H     3.92498   -8.00898    0.40743
       O     3.43807   -7.27323    0.77216
      H1     3.36346   -6.49876    0.26575
       H     4.39241   -3.12295   -6.55999
       O     5.21083   -2.63070   -6.75896
      H1     5.50826   -2.42117   -5.88691
       H     3.94123   -4.01262   -0.91457
       O     4.32103   -4.39463   -0.15299
      H1     5.08880   -3.83416   -0.03201
       H     0.17093   -7.26266   -7.80741
       O     0.19351   -6.31744   -7.94045
      H1    -0.48803   -6.08929   -8.56816
       H     2.30705  -11.22769   -1.13477
       O     2.97135  -11.91493   -1.07046
      H1     3.40138  -12.10741   -1.91550
       H    -1.88267   -8.69439   -9.72245
       O    -2.28241   -9.55993   -9.72942
      H1    -2.04690  -10.04152   -8.93281
       H     6.04902   -7.15622   -4.27134
       O     5.40463   -7.59388   -3.69348
      H1     5.52721   -7.19659   -2.82175
       H     7.69121   -7.24739   -1.75983
       O     7.14447   -6.56401   -1.39288
      H1     6.52700   -6.91556   -0.72342
       H     4.79845   -6.41638   -9.90199
       O     4.91051   -7.37244   -9.78998
      H1     5.45343   -7.62770  -10.50038
       H     7.53833   -5.47069   -5.47884
       O     7.87221   -5.98243   -4.76491
      H1     7.86031   -5.44125   -3.97441
       H    -2.10113  -10.63203   -4.91371
       O    -1.36318   -9.99662   -5.14133
      H1    -1.85743   -9.17545   -5.28032
       H    -2.17110  -10.58983    0.18063
       O    -1.53695  -11.20118   -0.31121
      H1    -0.70757  -10.68778   -0.39045
       H     9.10474   -9.35349   -2.11829
       O     8.76524   -8.46253   -2.50026
      H1     9.23581   -8.31591   -3.32347
       H     2.67268   -2.18329   -8.99812
       O     2.34048   -3.07071   -8.88337
      H1     1.77486   -3.37679   -9.58647
       H     5.09196   -9.87053    1.08341
       O     4.74998   -9.78669    0.19903
      H1     4.45052  -10.69639   -0.07508

