171
frame 11 | Written by MDAnalysis XYZWriter (release 2.4.3)
       H   -16.35478   -1.27812  -10.00137
       O   -15.54736   -0.94752  -10.36378
      H1   -15.00529   -0.57364   -9.64318
       H   -17.62974    4.39406   -9.22797
       O   -17.71357    5.16533   -9.78096
      H1   -18.42299    4.94355  -10.42101
       H   -18.68951   -2.76224  -12.07914
       O   -18.25456   -3.33015  -12.76556
      H1   -18.99700   -3.82677  -13.20633
       H   -17.86309   -0.70781  -14.36478
       O   -17.17861   -0.86099  -13.68471
      H1   -17.23825   -1.74048  -13.29403
       H   -14.40436   11.27151  -12.80415
       O   -14.47983   10.79689  -11.94943
      H1   -15.41974   10.59769  -11.84002
       H   -14.39043   -2.30032  -11.20164
       O   -13.82936   -3.02973  -11.40359
      H1   -14.27365   -3.38991  -12.21154
       H   -17.54633    2.04758   -9.83811
       O   -16.72818    2.53949   -9.82305
      H1   -16.91033    3.37993  -10.26393
       H   -15.76229   -2.05981  -16.00350
       O   -15.18419   -1.29072  -15.99192
      H1   -15.41779   -0.77592  -15.20256
       H   -15.21428    5.57678  -16.88021
       O   -15.46061    4.84067  -16.29333
      H1   -14.70805    4.20986  -16.49551
       H   -18.98038   -0.18771  -16.40816
       O   -18.85704   -1.16867  -16.15517
      H1   -17.97989   -1.43839  -16.34950
       H   -19.86236   -2.17811  -10.77220
       O   -18.94572   -1.92757  -10.45651
      H1   -18.55338   -2.81341  -10.11319
       H   -18.68361    2.15435  -16.94899
       O   -19.10413    1.30640  -17.14478
      H1   -18.84373    1.19803  -18.07686
       H   -11.20778    6.37833  -17.53725
       O   -10.85022    6.58274  -18.40645
      H1   -10.62873    7.55095  -18.39860
       H   -14.64251    2.61046   -9.82203
       O   -13.85662    2.82121  -10.27453
      H1   -13.20710    3.12136   -9.64502
       H   -14.76131    7.91018  -11.43796
       O   -13.99969    8.02936  -11.94665
      H1   -13.89981    8.96897  -12.12048
       H   -11.48668    8.26004   -9.94181
       O   -11.62799    7.71505  -10.74491
      H1   -12.47536    8.06118  -11.13047
       H   -10.14033    5.28517  -13.81536
       O    -9.75172    6.03084  -14.30882
      H1    -9.17266    5.72520  -15.03330
       H   -13.62510   11.10966  -19.40054
       O   -14.12671   11.60843  -18.71224
      H1   -14.51309   10.86986  -18.22744
       H   -13.43308   -1.45060  -15.24262
       O   -12.46273   -1.46957  -15.26418
      H1   -12.14784   -1.05937  -14.44631
       H   -18.22961   12.24584  -20.02248
       O   -18.54374   11.72655  -19.24848
      H1   -18.45921   10.80505  -19.54833
       H   -11.32707    4.98436  -11.86022
       O   -11.21125    4.42583  -12.62837
      H1   -12.09376    4.19186  -13.01290
       H   -15.44658    5.56748  -14.54051
       O   -15.43167    5.79654  -13.59112
      H1   -14.59935    6.28246  -13.35230
       H   -15.53513    6.64609   -9.55595
       O   -15.94774    7.28187  -10.19795
      H1   -16.67371    6.88296  -10.65829
       H   -12.75138   11.00397  -14.90892
       O   -13.57420   11.41598  -14.67053
      H1   -13.60980   12.32937  -14.94920
       H   -15.29336    0.08162  -18.59619
       O   -14.43849   -0.20803  -18.32949
      H1   -14.63843   -0.70198  -17.50249
       H   -10.45005    3.01651  -12.05920
       O    -9.85744    2.29548  -11.72088
      H1    -9.02425    2.45421  -12.18369
       H   -11.18009    9.18597  -14.55284
       O   -11.51318    9.39674  -15.46938
      H1   -10.79298    8.92486  -15.96879
       H   -12.42537   -3.14708  -16.39114
       O   -12.41516   -3.92284  -16.97041
      H1   -12.66890   -3.64427  -17.85435
       H   -17.56936    8.16566  -15.19263
       O   -16.78244    8.21593  -15.74781
      H1   -16.41643    9.11441  -15.81176
       H   -16.56786    1.71305  -11.29522
       O   -16.89596    1.51429  -12.24519
      H1   -16.82099    0.50356  -12.21648
       H    -8.82150    0.38383  -19.32651
       O    -9.55810    0.98430  -19.39470
      H1   -10.14410    0.72970  -18.66488
       H   -17.18540    6.47856  -12.71455
       O   -17.75976    6.88487  -12.07906
      H1   -18.58165    6.40732  -12.00350
       H   -15.89402   11.57759  -16.54329
       O   -15.54665   10.67362  -16.59424
      H1   -14.79577   10.75184  -16.01313
       H   -14.03432    4.58717  -19.46247
       O   -13.39921    3.97595  -19.12481
      H1   -12.66644    4.04868  -19.72090
       H   -14.52682    4.33229  -13.34168
       O   -13.84672    3.62228  -13.30583
      H1   -13.99339    3.26974  -12.41712
       H   -17.61648    7.80337  -17.59801
       O   -18.36413    7.31669  -18.04628
      H1   -18.49391    7.88989  -18.77648
       H   -16.86994   -4.41948  -16.67062
       O   -16.56328   -3.80842  -15.91848
      H1   -16.52769   -4.37117  -15.14436
       H   -11.30799    0.88834  -12.79280
       O   -11.86875    0.18603  -13.14917
      H1   -12.62848    0.74054  -13.47556
       H   -18.73072   -5.22463  -18.37583
       O   -18.00789   -4.76588  -18.81370
      H1   -17.51625   -5.58584  -18.88460
       H   -17.78894   13.16374  -16.51299
       O   -17.10847   13.05562  -17.20252
      H1   -17.50569   12.37670  -17.80347
       H   -11.08622   -1.16728  -18.99194
       O   -11.16870   -1.73147  -19.83226
      H1   -10.24178   -1.68488  -20.23209
       H   -10.45255   -1.22703  -16.85271
       O   -10.94224   -0.56797  -17.41304
      H1   -11.89575   -0.64510  -17.18345
       H   -12.63264    3.50771  -17.41326
       O   -12.69150    3.51811  -16.44742
      H1   -12.31356    4.37544  -16.13151
       H   -18.35131    3.84850  -15.83986
       O   -17.96685    3.78013  -16.72867
      H1   -17.02339    4.08870  -16.67380
       H   -10.74926    2.47730  -16.22484
       O    -9.93023    2.06466  -16.57483
      H1   -10.14279    1.16867  -16.90713
       H   -10.63530    8.86193  -20.01189
       O   -10.99296    9.23044  -19.20786
      H1   -11.99556    9.15281  -19.28346
       H   -14.39648    8.56627  -19.78316
       O   -13.74480    8.49640  -19.04973
      H1   -14.08296    7.73339  -18.55605
       H   -17.33050   10.47315   -9.93093
       O   -17.11905   10.06507  -10.72248
      H1   -17.58808    9.20665  -10.71666
       H   -12.44997    6.32903  -15.35858
       O   -11.75078    5.76902  -15.78502
      H1   -10.89940    5.88561  -15.37366
       H   -20.03440    1.65732  -12.57048
       O   -19.26898    1.42404  -13.16897
      H1   -18.44214    1.46400  -12.69299
       H   -15.60511    1.30663  -13.48994
       O   -14.89944    1.20272  -14.14673
      H1   -14.58555    2.08710  -14.28820
       H   -13.22520    8.32015  -16.09620
       O   -13.86798    7.59872  -16.03293
      H1   -14.71288    8.02617  -15.97014
       H   -19.67282    7.91438   -9.50122
       O   -19.53983    7.13253   -8.86768
      H1   -18.87794    6.62310   -9.34063
       H   -19.87932    8.96317  -14.74353
       O   -19.16236    8.69236  -14.13503
      H1   -19.47688    8.35105  -13.29647
       H   -12.85235   -2.52336  -19.71624
       O   -13.74584   -2.65856  -19.45440
      H1   -14.05335   -1.77565  -19.15243
       H   -17.82181   11.14135  -12.11364
       O   -18.20354   11.43322  -12.96138
      H1   -18.44669   10.63395  -13.44549
       H   -20.05379    4.06206  -14.23216
       O   -19.06593    3.95316  -14.18844
      H1   -19.01087    3.01539  -13.90580

