171
frame 4 | Written by MDAnalysis XYZWriter (release 2.4.3)
       H     2.90192   13.96199   16.63245
       O     3.50810   13.37128   17.10289
      H1     4.37033   13.40825   16.66195
       H    -0.52526   11.07837    8.37140
       O    -1.39022   11.29975    8.57147
      H1    -1.34485   11.43237    9.55387
       H     2.59703   11.78123   17.58257
       O     2.46912   10.91462   17.98281
      H1     3.09850   10.83168   18.70512
       H    -5.14764   12.60283   15.02320
       O    -5.22347   12.93749   15.92034
      H1    -5.60484   13.84225   16.00492
       H    -7.23431   11.00942   14.49633
       O    -7.67279   11.66876   15.07478
      H1    -7.02185   12.22309   15.53734
       H     4.82433    4.37941   17.93516
       O     4.38810    5.18567   18.34836
      H1     4.25755    5.81195   17.63204
       H     3.68210   12.74287   13.88975
       O     4.21673   12.10420   13.47252
      H1     4.21582   12.36699   12.56221
       H    -0.42446    4.38667   13.18589
       O    -0.76046    4.46420   14.07028
      H1    -0.44168    3.78534   14.67906
       H    -4.71651    3.60650   16.93692
       O    -3.80809    3.38973   17.28799
      H1    -3.30442    4.16914   16.98056
       H    -5.85544    9.28203   10.60685
       O    -6.32177   10.02394   10.91079
      H1    -6.39289   10.01868   11.87899
       H     2.74092    6.05801   16.23913
       O     3.50428    6.58385   15.98844
      H1     3.24822    7.52815   15.99562
       H    -3.54906   13.23172   19.24083
       O    -2.61508   12.95369   19.07638
      H1    -2.83606   11.97195   19.24584
       H     0.02122    6.02362    9.20726
       O    -0.62855    5.94480    9.98083
      H1    -0.52176    6.73577   10.56654
       H    -5.17052    6.81692   10.63575
       O    -5.65390    7.50124   10.16805
      H1    -4.91038    7.82938    9.53878
       H     2.16792   15.91113   17.85225
       O     1.28038   15.57028   17.78098
      H1     0.76536   16.26731   17.29408
       H    -8.62669    9.79589   18.49056
       O    -8.40204   10.41112   19.15605
      H1    -8.25054    9.94914   20.03574
       H    -3.28234   11.64402   14.19226
       O    -3.97845   11.46441   13.59055
      H1    -3.61295   11.43919   12.70463
       H    -3.71978    6.04668   18.86540
       O    -3.84541    5.18839   19.28091
      H1    -3.69640    4.49217   18.56519
       H     4.47472    5.62499   14.56280
       O     4.75062    5.00181   13.88172
      H1     4.24214    5.20117   13.08525
       H    -1.89257    9.84317   12.57141
       O    -2.28228    8.99438   12.81675
      H1    -2.21443    8.99979   13.78639
       H    -3.71085   11.72189   10.73883
       O    -3.04766   11.11817   11.15172
      H1    -3.37520   10.18483   11.16288
       H    -9.12186    8.78171   16.00529
       O    -8.77460    7.88901   15.94936
      H1    -9.37044    7.41389   15.29552
       H     2.40176    9.23841   14.97266
       O     2.19054    9.11535   15.92559
      H1     2.48472    9.82864   16.49574
       H    -7.28281    7.57688   14.82886
       O    -6.52103    7.26208   14.31875
      H1    -5.91190    7.32737   15.10661
       H     0.07169   13.46826   18.17327
       O    -0.18399   12.91700   17.38680
      H1    -1.17937   12.86190   17.46416
       H    -0.10371   13.65521   15.42520
       O    -0.49920   13.45176   14.57325
      H1    -0.86816   14.32432   14.27904
       H    -8.87420   10.88369   15.96219
       O    -9.60190   10.44418   16.45919
      H1    -9.60230   10.71728   17.36611
       H    -8.32861    7.40894   17.64383
       O    -7.72507    7.27845   18.36615
      H1    -7.14370    6.56069   18.12651
       H    -1.56800   16.68995   17.51999
       O    -2.46013   16.41632   17.72219
      H1    -2.37536   15.83857   18.48380
       H    -0.86463    6.65640   18.97420
       O    -0.56577    7.11033   18.19249
      H1    -0.50768    8.05319   18.27058
       H    -5.11016    1.73993   15.06224
       O    -4.18213    1.45839   15.19947
      H1    -3.76363    2.10861   15.85094
       H    -1.52524    5.30479   15.89193
       O    -2.14595    5.58347   16.57517
      H1    -1.55687    6.12043   17.17687
       H     0.45250   10.04475   12.43058
       O    -0.16597   10.74833   12.32953
      H1     0.05417   11.35439   13.00974
       H     0.54275    6.10449   14.36309
       O     1.07077    6.90992   13.97675
      H1     1.06448    7.58354   14.64171
       H    -0.97473   13.53380   11.90518
       O    -0.12211   13.67644   11.45149
      H1    -0.23709   13.67296   10.47433
       H    -3.43753    9.94457    9.12812
       O    -3.70754    9.05217    8.95722
      H1    -3.02322    8.59883    8.51075
       H     0.84752    6.07206   17.44828
       O     1.03701    5.44193   16.71020
      H1     1.31375    4.56702   17.03273
       H    -6.41524    9.16161   14.04087
       O    -6.35776   10.04863   13.62602
      H1    -5.43454   10.38864   13.73430
       H    -2.44071   10.35329   15.72934
       O    -2.49807    9.38212   15.73211
      H1    -1.79944    9.10061   16.29782
       H    -6.88487    5.42051   13.48655
       O    -7.17669    4.62628   13.04421
      H1    -6.57187    4.49247   12.30521
       H     1.57762    2.40807   15.95634
       O     2.20493    2.95744   16.48839
      H1     2.42857    2.37598   17.31418
       H     2.20166    5.09215   11.65746
       O     2.74126    5.78549   11.98119
      H1     2.16510    6.24226   12.72725
       H     2.97350    7.25884   11.18685
       O     3.18192    8.15745   10.87871
      H1     4.02905    8.25285   11.33917
       H    -1.74888   12.71799   15.49025
       O    -2.46869   12.21299   15.87570
      H1    -3.12713   12.80436   16.20579
       H    -5.48317   12.85446    9.65240
       O    -5.38821   12.64927   10.56732
      H1    -5.69047   11.71018   10.55639
       H     0.62188    9.49679   17.26790
       O    -0.19222    9.90791   17.59443
      H1    -0.06620   10.91485   17.61225
       H     0.32379    7.66989   12.35591
       O    -0.01296    8.11111   11.56413
      H1    -0.84713    8.51016   11.82679
       H    -6.85982    3.20923   17.82357
       O    -6.46597    3.59427   17.02286
      H1    -6.78531    3.08856   16.27775
       H    -2.28690   16.31191   14.16448
       O    -1.44642   16.02939   13.84470
      H1    -1.30300   16.64358   13.16882
       H     2.81236    9.37342   12.26337
       O     2.69411    9.69100   13.22075
      H1     3.24604   10.49509   13.30142
       H     2.87098   14.64525   13.73817
       O     2.53763   14.13120   14.45285
      H1     1.72005   13.76115   14.06069
       H     0.18767    4.80015   11.02492
       O     0.54829    4.11465   11.59943
      H1     0.37904    3.22324   11.29687
       H    -6.67861   10.71520   18.38713
       O    -5.81334   10.57238   17.91360
      H1    -5.65525   11.37848   17.47219
       H     1.72370   12.62513    9.90630
       O     1.92815   11.70773    9.92003
      H1     1.35825   11.39387   10.65586
       H    -5.64029    8.98210   16.95190
       O    -5.16957    8.35108   16.44767
      H1    -4.35233    8.77783   16.13022
       H    -4.21464    7.84146   17.94705
       O    -3.78707    7.82979   18.78855
      H1    -4.56488    7.88510   19.32049
       H     5.89234    7.77440   15.84512
       O     5.50850    8.65346   16.02228
      H1     5.31961    8.71669   16.96669

