171
frame 7 | Written by MDAnalysis XYZWriter (release 2.4.3)
       H    -4.54450    4.15021   12.89879
       O    -4.59224    3.34656   12.44278
      H1    -4.71370    2.70546   13.13154
       H     5.84987    3.43377   10.98497
       O     4.98086    3.01563   10.77627
      H1     4.45306    3.19875   11.55677
       H    -3.36327   -2.79702   11.18765
       O    -2.95473   -1.93133   11.25194
      H1    -2.48152   -1.97060   12.09331
       H     8.71573    2.36335   15.87780
       O     8.23773    1.49211   15.94015
      H1     7.64852    1.63721   15.14280
       H     4.55701   -2.48981   13.26429
       O     4.78280   -2.63041   12.32543
      H1     4.06787   -2.18480   11.82874
       H     5.93261    5.39356   18.45629
       O     5.42037    6.21658   18.53977
      H1     5.03747    6.30388   17.62438
       H    -0.02991    2.92751   13.74610
       O    -0.60039    3.01076   14.49390
      H1    -0.03074    2.80978   15.26407
       H     0.96724   -1.12999   18.20639
       O     1.83037   -1.07534   17.79521
      H1     2.00878   -2.02751   17.53473
       H    -3.69400    2.83490   17.08582
       O    -2.77654    3.04783   17.29136
      H1    -2.60640    3.62297   16.51778
       H     3.63172    6.32260   16.43891
       O     4.31529    6.82813   16.02010
      H1     3.94624    7.70723   15.92270
       H    -0.96957   -0.84526   13.62816
       O    -1.84163   -1.17251   13.87287
      H1    -2.45973   -0.38427   13.85808
       H     0.48070    9.65869   19.52292
       O    -0.05913   10.41538   19.15908
      H1     0.16356   10.40911   18.22873
       H     6.99406   -3.00073   15.53048
       O     6.00237   -2.79501   15.45123
      H1     5.57286   -2.89983   16.33463
       H     3.05563    3.87498   13.51640
       O     3.76178    3.18663   13.52098
      H1     3.84252    2.98980   14.43777
       H     0.31487    5.33687   10.11742
       O    -0.37235    5.15938   10.74683
      H1    -0.40763    5.96753   11.29270
       H     4.97523    0.23132   16.46554
       O     4.96226   -0.30387   15.65670
      H1     5.48224   -1.10056   15.85353
       H     1.18061    1.45736   16.29606
       O     0.89298    2.29495   16.63710
      H1     0.32277    2.14148   17.43511
       H    -0.43392   -3.54227   14.29507
       O    -1.36729   -3.85567   14.06428
      H1    -1.93017   -3.06144   13.96694
       H    -4.05313    6.87799   19.06769
       O    -3.64567    5.99179   19.20663
      H1    -3.16265    5.73836   18.39228
       H     4.67848    6.47220   14.16672
       O     5.05252    6.41185   13.28631
      H1     5.54766    7.22836   13.08424
       H    -1.44673   -4.99420   15.71306
       O    -1.33395   -5.83390   16.20633
      H1    -0.79816   -6.35135   15.60663
       H     2.67729   -1.36892   13.73789
       O     3.21664   -1.80367   14.39205
      H1     3.78234   -1.10863   14.84663
       H     1.62541   -0.03119   14.38066
       O     0.98009   -0.05889   15.10467
      H1     1.33957   -0.61198   15.82372
       H     2.43841    9.48425   15.20081
       O     2.28646    8.76431   15.81614
      H1     2.60667    9.06740   16.66836
       H    -4.56166   -1.09511   19.18134
       O    -4.82368   -1.71436   19.88356
      H1    -4.76333   -2.59993   19.42603
       H     6.60907    1.74220   13.54938
       O     6.65764    2.58212   14.01819
      H1     5.94594    3.11356   13.57149
       H     4.72666    0.64648   18.56456
       O     5.13318    1.29035   17.96244
      H1     6.08149    1.26040   18.16401
       H    -5.11445    5.23942   19.43321
       O    -6.04392    4.91265   19.68709
      H1    -6.12652    3.99183   19.53451
       H    -5.46223    5.82090   15.29476
       O    -4.96447    5.51158   14.49279
      H1    -4.03320    5.29706   14.75888
       H    -1.00476    0.18727   18.78353
       O    -0.72212   -0.69006   19.09629
      H1    -0.97248   -0.70447   20.03148
       H    -0.91036    6.67060   18.20360
       O    -1.34965    7.07235   17.42262
      H1    -0.99585    7.98163   17.43320
       H    -4.55273    0.60333   17.27494
       O    -4.00068    0.02325   17.83583
      H1    -3.61381    0.64232   18.54154
       H    -1.76516    4.43390   14.89272
       O    -2.28309    5.04388   15.39965
      H1    -1.68031    5.77366   15.64311
       H     0.94403    6.13870   15.66499
       O     0.75700    6.68008   14.88409
      H1     1.45268    7.35198   15.00045
       H    -1.61479    2.90915   18.54830
       O    -1.02339    2.35345   19.08129
      H1    -0.39162    2.97087   19.55124
       H     2.47138    5.98761   18.15547
       O     2.28004    5.63992   17.24683
      H1     2.71970    4.71880   17.29101
       H     2.58221    2.95858   16.62522
       O     3.48564    3.28654   16.50338
      H1     4.09507    2.73743   16.93527
       H     1.49175    5.19995   12.23267
       O     2.08757    5.48062   12.86522
      H1     1.62692    5.91005   13.56558
       H     2.11915   -3.31598   14.71089
       O     1.29999   -3.78402   14.82688
      H1     1.45638   -4.72352   14.97071
       H     6.27378   -0.53452   12.91308
       O     6.82307   -0.34886   13.65268
      H1     6.14197   -0.30632   14.40837
       H    -1.72438   -3.95836   20.07240
       O    -1.78721   -3.75425   19.13143
      H1    -1.68327   -2.82122   19.09815
       H     2.77015    7.33655   12.36912
       O     2.97920    8.26606   12.12495
      H1     3.89563    8.31632   12.30309
       H     8.14530    4.41488   18.01234
       O     7.42424    4.19480   18.60561
      H1     7.80754    4.24166   19.46614
       H    -0.29079   -4.75974   18.80865
       O     0.42598   -5.41436   18.70133
      H1     0.28773   -5.85665   17.83149
       H     0.24819    0.23032    9.78079
       O     1.04617    0.83927    9.97911
      H1     1.34956    1.17193    9.04935
       H    -0.02554   -2.81642   11.87416
       O     0.37303   -1.92929   11.79538
      H1    -0.17999   -1.62739   11.07223
       H     8.97203    1.04574   18.54945
       O     8.22451    0.37759   18.48673
      H1     8.00930    0.43491   17.52374
       H     4.37422   -2.73706   18.40208
       O     5.06429   -2.15578   18.73305
      H1     4.62370   -1.82277   19.54072
       H    -5.36476   -2.07593   15.33491
       O    -5.27062   -2.25335   16.29383
      H1    -4.57889   -1.59282   16.55140
       H    -3.52130   -4.16479   18.25992
       O    -4.41028   -3.86161   18.27077
      H1    -4.59802   -3.45883   17.38239
       H    -2.11447    1.66305   14.23594
       O    -2.94015    1.26334   14.54753
      H1    -2.83769    1.12607   15.44806
       H    -0.14532    7.04476   13.33815
       O    -0.21504    7.43945   12.40386
      H1    -1.16570    7.68181   12.39088
       H     2.31146    1.36067   12.43359
       O     2.40979    0.46805   12.74336
      H1     2.02071   -0.05634   12.04076
       H    -5.70558    2.28382   17.76489
       O    -5.44236    2.22811   16.83204
      H1    -6.18273    2.54886   16.26732
       H    -4.76195    1.04078   14.24691
       O    -5.45393    0.95481   13.61312
      H1    -6.25947    1.39794   14.03833
       H    -0.26774    3.30576   11.72351
       O     0.27234    2.54132   11.96405
      H1     0.53588    2.26975   11.05707
       H     2.33586   -4.32398   17.97346
       O     2.47794   -3.76871   17.20438
      H1     1.80143   -3.82597   16.54495

