171
frame 4 | Written by MDAnalysis XYZWriter (release 2.4.3)
       H   -17.77392    6.38105    9.06358
       O   -17.43428    6.29810   10.01087
      H1   -18.16189    6.42438   10.63120
       H   -10.38763    6.71893   13.73623
       O   -10.83316    6.81241   14.61350
      H1   -11.52519    7.44587   14.51311
       H   -16.56083    4.65868    7.37765
       O   -16.40932    3.74403    7.69560
      H1   -15.93800    3.82718    8.55918
       H   -13.08986    0.91589    3.72894
       O   -13.84550    1.17109    3.16311
      H1   -14.54458    1.55782    3.75956
       H   -13.22764    3.90038   12.37842
       O   -12.87646    3.19905   11.84101
      H1   -12.51764    2.60819   12.50772
       H   -17.97573    2.96078    7.56199
       O   -18.76535    2.44111    7.40260
      H1   -19.48764    2.77519    7.91181
       H   -14.39944    9.68990    6.78679
       O   -14.04716   10.33359    7.43172
      H1   -13.35724    9.89903    7.91022
       H   -11.63067    9.11049    9.72552
       O   -11.80156    8.70208    8.88624
      H1   -12.18886    7.82897    9.10475
       H   -13.02334    2.34489   16.83421
       O   -12.19623    2.79226   16.60419
      H1   -11.62238    2.30612   17.20217
       H   -13.95667   -0.68782   14.88599
       O   -13.18199   -0.93147   14.46374
      H1   -13.36092   -1.50716   13.70523
       H   -15.97525    5.32384   10.43342
       O   -15.26363    4.69795   10.29414
      H1   -15.48518    3.87925   10.74569
       H   -13.95185    4.87484   14.50971
       O   -13.57952    5.18976   13.59393
      H1   -13.01010    5.90006   13.87280
       H   -16.21501    7.77554   10.25555
       O   -15.40171    8.19406    9.90765
      H1   -15.04953    8.67891   10.66060
       H   -18.69963    6.01049   15.62722
       O   -17.88467    5.46841   15.67254
      H1   -17.93186    5.04830   14.77333
       H   -16.40008    9.44790    8.44591
       O   -17.23368    9.22517    8.01312
      H1   -17.45568    9.95532    7.46661
       H   -16.68972   -1.88353   12.56400
       O   -17.15099   -1.11083   12.23995
      H1   -18.01458   -1.44106   11.96573
       H   -10.83774    4.50111    7.21357
       O   -10.21718    3.77072    7.32444
      H1    -9.62641    4.14953    8.02942
       H   -17.67380    2.85174   14.10031
       O   -17.93115    3.59687   13.55025
      H1   -17.31545    3.53432   12.75315
       H   -16.14528    3.04843    4.54125
       O   -15.60483    2.68337    5.22338
      H1   -16.13431    2.73875    6.00806
       H   -11.27801    9.13613    7.24716
       O   -10.68437    9.65465    6.61885
      H1   -11.10584    9.71044    5.77919
       H   -16.78168    6.60092   15.60966
       O   -16.14198    7.29731   15.35741
      H1   -15.98056    7.04993   14.45238
       H   -15.70588    1.51052   11.15825
       O   -16.33638    2.24982   11.20043
      H1   -17.11812    1.95113   10.77813
       H   -15.18305   10.59961   14.29396
       O   -14.95038    9.88685   13.67321
      H1   -15.76095    9.39368   13.84703
       H    -8.87666    3.38258   10.84521
       O    -9.15925    2.77687   11.51592
      H1    -9.94388    2.25253   11.15959
       H   -18.39200    0.90989    8.54059
       O   -18.04367    0.51661    9.34358
      H1   -17.45676   -0.20415    8.96820
       H   -13.52051    8.81682   14.45782
       O   -12.92064    8.30132   15.06259
      H1   -13.43998    7.81493   15.76314
       H   -17.36418    8.94279   15.47151
       O   -17.96776    9.65113   15.24905
      H1   -18.03096   10.10947   16.12005
       H   -14.03935   10.73589   11.60753
       O   -13.64376   10.47737   10.75592
      H1   -14.18568   10.91664   10.11761
       H    -8.92130    5.34892   12.66048
       O    -9.56363    6.04719   12.42714
      H1   -10.35081    5.56347   12.08431
       H   -13.47703    2.14867   10.30350
       O   -13.30581    1.49817    9.60132
      H1   -14.09957    0.93487    9.66453
       H   -17.11183   -0.67975   13.86226
       O   -16.81118   -0.59510   14.81046
      H1   -16.98207   -1.47704   15.20836
       H   -12.44304    6.57811    7.27800
       O   -11.70858    6.20829    6.69467
      H1   -12.15611    5.86360    5.89012
       H    -8.21222    5.22259    9.41763
       O    -8.04451    4.27551    9.44411
      H1    -7.43283    4.11757    8.71552
       H   -14.72394    7.08797   16.48684
       O   -14.01298    6.85173   17.14355
      H1   -13.47972    6.13021   16.76971
       H   -13.03772    5.49233    3.41699
       O   -12.93905    6.33874    3.00582
      H1   -12.14186    6.43173    2.36890
       H   -15.03856    7.19417   11.66524
       O   -15.29657    7.00035   12.57062
      H1   -14.77109    6.26551   12.87080
       H   -17.42931   -1.83303    7.42021
       O   -16.75311   -2.00327    8.08001
      H1   -15.92253   -2.10463    7.62963
       H   -10.96769    2.03188    6.93927
       O   -11.62158    1.28347    6.97469
      H1   -12.18274    1.40172    7.73484
       H   -12.95507   -1.58274    7.85154
       O   -13.33462   -0.92070    7.23730
      H1   -12.70741   -0.23437    6.98968
       H   -14.49215   -0.93637   11.17642
       O   -15.11036   -0.35750   10.68447
      H1   -15.93583   -0.54543   11.17302
       H   -11.61257    4.26795    9.04984
       O   -11.44916    4.53931    9.93210
      H1   -11.89414    3.95142   10.53806
       H   -13.77289   -2.90742   12.14997
       O   -13.40474   -2.03318   12.06532
      H1   -12.47970   -2.28712   11.81705
       H   -18.99380    4.32623    3.37651
       O   -18.36325    3.93945    3.95188
      H1   -17.57567    3.90918    3.40415
       H   -17.24282    7.52354    7.34761
       O   -17.41969    6.63978    7.12577
      H1   -18.41844    6.64809    6.96120
       H   -13.97592    3.77564    5.73215
       O   -13.72094    4.68156    5.45169
      H1   -14.05279    5.18892    6.23468
       H    -9.08505    6.99380   10.28870
       O    -8.50014    6.84409    9.53023
      H1    -7.59023    7.07835    9.81844
       H   -11.56921   10.17828   11.79776
       O   -11.04605    9.36545   11.76163
      H1   -10.20761    9.70070   11.42982
       H   -10.34787    0.06346    7.58574
       O    -9.66359   -0.63664    7.79795
      H1   -10.02545   -1.56842    7.82693
       H   -15.88951    6.67019    4.29930
       O   -16.34108    7.40984    3.89627
      H1   -16.00658    7.36540    2.96983
       H   -15.28509    8.06710    4.89071
       O   -14.71776    8.69816    5.39855
      H1   -13.82384    8.59058    5.04205
       H   -11.92358    0.80373   10.53940
       O   -11.05455    0.80824   10.95985
      H1   -11.30114    0.42670   11.83782
       H   -16.22750    4.62481   15.79274
       O   -15.27778    4.37017   15.74366
      H1   -15.23378    3.56748   16.21582
       H   -11.64068    4.61654   16.82933
       O   -11.62105    5.57080   16.80252
      H1   -11.30603    5.86182   15.97755
       H   -17.72580    1.84564   16.48942
       O   -17.92056    1.76990   15.53359
      H1   -17.48561    0.91211   15.30279
       H   -18.79222    8.78801    8.87850
       O   -19.68107    8.45762    9.09420
      H1   -19.60612    8.28780   10.02032
       H   -14.50408    7.06279    8.63491
       O   -14.01251    6.33775    8.17281
      H1   -14.11018    5.55227    8.78060
       H   -12.04000    1.68021   14.78302
       O   -11.81970    1.35277   13.91647
      H1   -12.35908    0.49714   13.92894

