171
frame 3 | Written by MDAnalysis XYZWriter (release 2.4.3)
       H     6.18196  -18.95418  -15.17397
       O     5.29995  -19.28430  -14.96086
      H1     5.39500  -20.25841  -14.95782
       H     6.37222   -8.15130  -12.73444
       O     5.93580   -8.96539  -12.50018
      H1     6.67421   -9.53798  -12.18139
       H     3.26516  -16.51481   -9.10747
       O     3.13571  -17.48904   -9.15133
      H1     3.85041  -17.83433   -9.72931
       H    10.28092   -7.43867  -16.25806
       O    10.39706   -7.60338  -17.19438
      H1    10.26905   -6.73581  -17.61315
       H     0.91139  -19.19525  -15.72749
       O     1.84183  -18.99304  -15.55734
      H1     2.30903  -19.43581  -16.24499
       H     9.73982  -15.59917  -17.20230
       O    10.55127  -15.67289  -16.65074
      H1    11.23526  -15.30306  -17.27324
       H    12.67328  -17.73314  -17.08380
       O    12.74185  -17.42231  -16.21876
      H1    11.89360  -16.93735  -16.06394
       H     5.16167  -16.86842  -14.84760
       O     5.46615  -16.21514  -14.18917
      H1     6.31007  -16.51387  -13.80812
       H     6.61826  -12.75513  -11.30677
       O     5.78243  -12.74215  -11.75614
      H1     5.89066  -12.62293  -12.69403
       H     3.33199  -17.03476  -16.71444
       O     4.27126  -17.34143  -16.82435
      H1     4.44074  -18.13965  -16.28401
       H     9.14167  -19.09057  -15.01209
       O     9.74693  -19.50248  -14.34158
      H1    10.60475  -19.18489  -14.54112
       H    -2.05410  -11.28038  -17.29481
       O    -1.48139  -12.04000  -17.58192
      H1    -1.66466  -12.15343  -18.54823
       H     5.40573  -12.82948  -15.39672
       O     5.41419  -13.62542  -15.94515
      H1     5.41404  -14.35382  -15.34780
       H    16.38928  -13.62574  -15.19103
       O    15.45646  -13.66363  -14.92175
      H1    15.24915  -14.56784  -14.73882
       H     8.29381  -17.00571   -9.12314
       O     8.33108  -16.09920   -9.55435
      H1     8.12804  -16.33743  -10.45803
       H    10.08190  -13.01397  -18.23870
       O     9.62471  -13.41152  -18.96664
      H1     8.70638  -13.14717  -18.82015
       H    13.86037  -16.57285  -15.11449
       O    14.57064  -16.23381  -14.55673
      H1    14.30391  -16.52175  -13.61029
       H     8.98216  -10.52554  -14.59492
       O     9.42029   -9.94918  -15.21693
      H1     9.00823   -9.98227  -16.10078
       H     2.42235  -11.19269  -17.63133
       O     2.08965  -10.64636  -16.90946
      H1     2.82007  -10.09562  -16.51865
       H     0.81041  -15.83791  -14.59627
       O     1.53021  -16.22334  -15.12349
      H1     1.50396  -17.18580  -14.93780
       H     1.42729  -15.95593  -16.89056
       O     1.66381  -16.16780  -17.79494
      H1     2.32999  -15.53616  -18.08846
       H     3.08194  -19.10302  -12.20274
       O     2.17614  -18.83152  -12.37321
      H1     2.27726  -17.89412  -12.63069
       H     6.08204  -13.80631   -8.72551
       O     6.15119  -14.72616   -8.45311
      H1     6.90926  -15.02726   -8.99983
       H    11.80302   -8.56824  -17.44014
       O    12.46516   -9.29929  -17.51387
      H1    12.72631   -9.25761  -18.41329
       H    -2.50216  -18.68844  -18.21725
       O    -2.33941  -19.07771  -19.13338
      H1    -2.37310  -18.44793  -19.83265
       H    15.76837  -12.80356  -18.79859
       O    15.84717  -13.65677  -19.28230
      H1    15.76120  -14.41593  -18.69343
       H    12.41507  -14.18525  -18.92774
       O    12.51022  -15.07207  -18.56138
      H1    13.43317  -15.16627  -18.27489
       H     1.19733  -13.46116  -15.85584
       O     0.72954  -13.51902  -16.67758
      H1    -0.15741  -13.09911  -16.57680
       H     7.74750  -17.17767  -16.30166
       O     7.80498  -18.12577  -16.05362
      H1     7.45784  -18.62155  -16.79052
       H     0.32854  -13.89226  -12.78013
       O     0.41149  -13.72195  -13.71358
      H1    -0.42785  -13.34414  -13.83559
       H     2.44446   -9.05666  -18.89005
       O     1.99608   -9.23078  -19.73674
      H1     2.61111   -9.10538  -20.48397
       H     4.14804  -16.27293  -13.12585
       O     3.15723  -16.23655  -12.92326
      H1     2.68059  -16.17252  -13.78152
       H     5.53429   -8.55104  -17.00879
       O     5.94430   -8.24021  -17.87314
      H1     5.90546   -7.27521  -17.86642
       H     3.19193  -13.27890  -18.40372
       O     3.74563  -13.96849  -18.14733
      H1     4.01415  -13.94112  -17.20613
       H     3.10627  -14.23390  -12.21857
       O     3.31801  -13.48042  -11.58591
      H1     4.25256  -13.17009  -11.60366
       H     1.30696  -12.14066  -19.01711
       O     2.16066  -11.78503  -19.29646
      H1     2.00595  -10.83808  -19.38708
       H     5.58868  -10.34835  -13.69442
       O     5.13773  -11.09314  -14.16033
      H1     4.34119  -11.14922  -13.70040
       H    -1.85761  -16.97467  -17.23163
       O    -2.80596  -17.00760  -17.06565
      H1    -2.91802  -17.18829  -16.12700
       H     7.48101   -9.17123  -17.44705
       O     8.32086   -9.68678  -17.50998
      H1     9.00633   -9.01882  -17.62048
       H    10.15296  -10.86862  -10.30263
       O    10.64132  -10.40737  -11.03807
      H1    11.05493  -11.11702  -11.56484
       H    12.37923  -12.23596  -14.83882
       O    13.01113  -12.45749  -14.10909
      H1    13.75154  -12.69366  -14.67612
       H    10.09815  -14.65301  -12.93902
       O     9.60382  -15.11292  -13.69715
      H1    10.16740  -14.98555  -14.43588
       H     5.43477  -19.78687  -18.84174
       O     4.59532  -19.34980  -19.03567
      H1     4.57846  -18.51552  -18.61478
       H     4.47386   -8.30949  -15.33976
       O     4.38875   -9.15086  -15.80323
      H1     4.71879   -9.90490  -15.18405
       H    11.29398   -7.58150  -13.83516
       O    10.47413   -7.60967  -14.40499
      H1    10.07465   -8.46975  -14.18614
       H     7.53003  -11.43072  -17.88407
       O     7.13980  -12.21992  -18.22900
      H1     6.59261  -12.58918  -17.54714
       H    -0.15465  -19.43548  -17.46873
       O    -0.32390  -18.54091  -17.15031
      H1     0.57070  -18.12755  -17.20064
       H    11.73440  -13.97874  -11.49227
       O    11.29474  -13.45791  -12.16871
      H1    11.89746  -13.52173  -12.92318
       H     3.36951  -14.66812   -9.96723
       O     3.50175  -14.88906   -9.05570
      H1     4.47029  -14.88340   -8.94533
       H     9.26548  -13.46800  -11.07145
       O     8.63128  -12.78501  -10.80665
      H1     8.69189  -12.85834   -9.84711
       H    10.76334  -11.02822  -15.91728
       O    11.37342  -11.61857  -16.39090
      H1    11.85605  -10.97416  -16.94462
       H     8.20911   -9.79038  -12.46713
       O     8.13802  -10.66183  -12.89322
      H1     8.53595  -11.26170  -12.27902
       H    15.26841  -15.52423  -16.74479
       O    15.32127  -15.88787  -17.63064
      H1    16.16896  -16.34557  -17.69600
       H     8.10369  -16.57907  -18.66814
       O     7.63518  -16.00601  -18.04559
      H1     6.82442  -15.88572  -18.58516
       H    -0.70391  -11.09471  -15.08039
       O    -0.04191  -10.40757  -15.17913
      H1     0.69475  -10.63546  -15.79379
       H     2.97878  -11.97554  -12.25202
       O     3.10085  -11.03872  -12.49188
      H1     2.40932  -10.71340  -13.08610
       H     8.69493  -16.73659  -12.82126
       O     8.07361  -16.99367  -12.13509
      H1     8.27021  -17.94886  -12.02745

