171
frame 4 | Written by MDAnalysis XYZWriter (release 2.4.3)
       H     2.62114   17.74721  -10.07413
       O     3.40490   17.19014  -10.27142
      H1     3.58950   16.66638   -9.44271
       H     3.64909   17.62748  -14.81546
       O     4.33826   17.69455  -15.44921
      H1     4.01571   17.94661  -16.32361
       H     6.34915   20.18304  -14.82726
       O     5.45313   19.89441  -14.58669
      H1     5.30345   18.99038  -14.87207
       H     9.70002   14.35068  -12.62363
       O     9.22519   14.75617  -13.42620
      H1     8.71694   14.06127  -13.87372
       H    -2.31054   17.47654  -13.08922
       O    -2.06680   18.19304  -13.66286
      H1    -1.89243   17.76756  -14.52182
       H     8.15617   17.97341  -17.90977
       O     8.02139   18.95063  -18.10112
      H1     8.76098   19.23265  -18.60772
       H     1.74062   11.53366   -5.54095
       O     2.61896   11.26470   -5.93737
      H1     3.05583   12.01055   -6.37290
       H     7.82585   15.90481  -13.01345
       O     7.23843   16.67327  -12.98054
      H1     7.70701   17.51052  -13.15194
       H     0.55232   16.62755  -12.76479
       O     0.64461   16.08825  -11.94275
      H1     0.41394   16.72740  -11.25689
       H     2.02410   12.19977  -13.27684
       O     1.80790   12.08789  -12.32627
      H1     0.81868   12.16554  -12.35588
       H     7.08246   12.82349   -7.41364
       O     7.60605   12.69739   -6.60061
      H1     7.70406   11.75592   -6.49811
       H     3.10527   15.38387  -14.77067
       O     2.47295   15.47137  -15.52792
      H1     3.03309   15.04339  -16.21566
       H     5.29422   15.85367  -16.04853
       O     5.66096   15.08899  -16.53891
      H1     5.02014   14.94872  -17.27378
       H     0.97534   15.64133  -19.78237
       O     0.95697   15.59879  -18.81171
      H1     0.33598   14.86204  -18.66714
       H     9.45871   19.89784  -15.16888
       O     9.88189   19.30097  -14.52180
      H1    10.68329   19.80657  -14.22009
       H    -0.34484   19.19473  -10.44701
       O    -0.37962   18.94051   -9.53169
      H1    -1.27296   18.94191   -9.15229
       H    -1.20132   17.89265   -5.22666
       O    -0.38714   17.33778   -5.08819
      H1     0.18352   17.97567   -4.62406
       H    -0.73010   16.79543  -16.16336
       O    -1.69728   16.69059  -16.18159
      H1    -1.91537   16.53742  -17.08600
       H    -0.85643   13.73278  -13.26923
       O    -0.97998   13.92839  -12.37459
      H1    -0.43374   14.65755  -12.12646
       H    11.40028   12.54797  -11.52699
       O    10.77150   13.12195  -11.96396
      H1    10.54577   12.57534  -12.74546
       H     9.96919   17.44697  -14.81616
       O    10.32230   16.61772  -15.12985
      H1     9.80293   15.91291  -14.63985
       H     3.40273    9.23177  -11.65268
       O     4.31990    9.12971  -11.51931
      H1     4.68057   10.07469  -11.51803
       H     9.34751   14.83876   -9.03129
       O     8.91426   15.68291   -8.79188
      H1     9.57679   16.31569   -9.11648
       H     5.93841   16.03603   -8.86538
       O     6.35525   16.23007   -9.73906
      H1     7.30182   16.00882   -9.70437
       H     7.87569   12.59187  -15.64166
       O     7.86963   13.56112  -15.58459
      H1     7.05725   13.94256  -16.02338
       H     1.19381   14.67514   -8.01848
       O     0.95892   14.39302   -8.91508
      H1     1.74861   14.55270   -9.48240
       H     5.21393   17.08733  -12.71780
       O     4.28034   17.23721  -12.73163
      H1     3.96721   17.15381  -11.79894
       H     3.40805   13.55952  -18.61393
       O     4.10633   14.22857  -18.53658
      H1     3.89019   14.88231  -19.20982
       H     8.91336   16.32152  -16.56581
       O     8.30537   16.18851  -17.37082
      H1     7.37328   16.00378  -17.05842
       H     1.45570   16.96427  -14.64647
       O     0.74035   17.62086  -14.51991
      H1     1.21978   18.37358  -14.90494
       H     3.37268   16.20619   -7.24044
       O     4.15151   15.87364   -7.70446
      H1     4.21941   14.87884   -7.47867
       H    -1.05272   11.32259  -10.43756
       O    -1.12444   11.06018  -11.37341
      H1    -1.50261   11.95484  -11.59196
       H     6.25726   18.09076  -10.88565
       O     6.13771   19.03679  -11.07908
      H1     5.43276   19.03624  -11.75238
       H     7.89995   18.46493   -7.77631
       O     7.95257   17.70533   -7.19679
      H1     8.20452   16.93350   -7.71531
       H     9.40569   13.13938   -7.67974
       O    10.18794   13.26304   -8.17233
      H1    10.70630   13.86821   -7.61255
       H    -1.60363   13.45345  -18.48121
       O    -0.67921   13.64545  -18.21553
      H1    -0.84050   13.89019  -17.26455
       H     0.33667   11.26380   -8.38324
       O    -0.31923   11.89620   -8.73984
      H1     0.15545   12.68751   -8.95422
       H     5.95863   14.85938  -10.57019
       O     5.46108   14.12880  -11.03735
      H1     4.53061   14.28146  -10.94102
       H     2.20775   12.43342  -16.35324
       O     2.35275   12.51142  -15.41656
      H1     3.04647   11.85623  -15.32882
       H     3.00373   18.10192  -18.70853
       O     3.92627   17.99731  -18.50695
      H1     4.34386   18.88046  -18.69038
       H     6.54926   11.41370  -12.55110
       O     5.61495   11.61582  -12.46547
      H1     5.60565   12.57344  -12.22444
       H     2.81549   17.38548   -5.74938
       O     3.48773   17.45111   -5.03601
      H1     3.35052   16.73936   -4.42347
       H    -0.05158   18.99408  -12.93359
       O     0.32437   19.34195  -12.15283
      H1     1.16188   19.71207  -12.49043
       H     2.26817   13.74794  -11.43604
       O     2.75694   14.44392  -10.99208
      H1     2.40366   15.26244  -11.31204
       H     0.51104   17.86249  -18.53991
       O     0.88416   18.72399  -18.46299
      H1     0.55045   19.13984  -19.28387
       H     1.29825   18.07947   -6.68917
       O     2.10327   17.92613   -7.22556
      H1     2.39535   18.90014   -7.32762
       H     5.33273   17.03541   -5.50960
       O     6.18820   16.92098   -5.09981
      H1     6.80015   16.98387   -5.85719
       H    11.15950   17.57831   -9.14246
       O    10.55400   17.73779   -9.86403
      H1    10.84387   18.54983  -10.24715
       H     4.53944   13.24687   -6.16184
       O     4.23426   13.17548   -7.06029
      H1     5.01479   13.07331   -7.63628
       H     0.77398   15.74078   -5.94804
       O     1.38707   15.03717   -6.20975
      H1     0.90362   14.27106   -5.99331
       H     0.57231   12.68419  -15.35973
       O    -0.30307   12.98101  -15.11434
      H1    -0.86570   12.22099  -15.39179
       H     6.20275   10.90773  -15.49870
       O     5.25779   10.76223  -15.26588
      H1     5.14366   10.78292  -14.35543
       H     5.66350   12.90669   -9.85140
       O     6.10955   12.60635   -9.01575
      H1     5.77968   11.76681   -8.76692
       H    -2.79397   14.93739   -6.08520
       O    -2.80800   15.05718   -7.03852
      H1    -1.99977   15.53094   -7.29119
       H    -2.30755   15.40557  -12.01691
       O    -3.06777   16.00627  -11.96572
      H1    -3.25257   16.19170  -11.04220
       H     1.49136   10.12482  -11.92124
       O     1.54311    9.18754  -11.79765
      H1     0.87391    9.00501  -11.03924
       H    -0.26915   15.61524   -8.74698
       O    -0.81765   16.34945   -8.34973
      H1    -0.43755   17.16244   -8.72032

