171
frame 5 | Written by MDAnalysis XYZWriter (release 2.4.3)
       H     3.29875   16.85087  -15.70942
       O     3.22166   17.79991  -15.94057
      H1     3.44586   17.82368  -16.87629
       H     8.20175    8.24376  -11.96654
       O     9.18162    8.39167  -11.68247
      H1     9.30889    8.72602  -10.78920
       H    12.03972    9.24038  -14.25990
       O    12.02364    9.98990  -14.84526
      H1    12.82136   10.54079  -14.65639
       H    12.73242   12.14117  -18.11500
       O    13.53379   12.60718  -17.91160
      H1    13.62071   12.36397  -16.97537
       H    15.85112   13.83290  -17.19844
       O    16.10380   13.78573  -16.20795
      H1    15.57405   13.10438  -15.78161
       H     8.93151   14.18784  -12.09080
       O     8.28647   14.68945  -12.63234
      H1     7.95087   14.01648  -13.18332
       H     8.59610   19.12959  -17.62828
       O     8.04850   19.66733  -18.14346
      H1     8.65750   20.21127  -18.74047
       H     6.52919   16.24340  -12.99391
       O     6.34287   16.85427  -13.70929
      H1     6.98919   17.54845  -13.47760
       H    14.00003   11.53301  -11.63948
       O    14.70712   12.00512  -12.14846
      H1    14.39433   12.95268  -12.14381
       H     7.91586   13.24465   -8.43115
       O     8.58496   13.45756   -7.78687
      H1     8.56566   12.66922   -7.16285
       H     2.62851   14.28997  -14.85350
       O     2.87173   15.14562  -15.30844
      H1     3.21606   14.83848  -16.18754
       H     6.03935   16.12014  -15.60352
       O     6.24857   15.51474  -16.37755
      H1     5.48010   15.49141  -16.93069
       H    16.88899   16.35818  -14.91469
       O    16.79010   16.87061  -15.76414
      H1    15.85742   16.68246  -15.91269
       H     8.38510   19.78660  -14.68786
       O     8.86236   19.20203  -14.08030
      H1     9.82259   19.33981  -14.02439
       H    12.73982   15.45783   -9.20685
       O    13.03316   15.91904  -10.00321
      H1    12.73767   15.23423  -10.58130
       H    11.25105   12.49792  -11.46305
       O    10.58467   12.94142  -12.01671
      H1    10.38432   12.20062  -12.63832
       H    11.74426   10.54729  -10.43300
       O    12.34012   11.32810  -10.46479
      H1    12.27920   11.68823   -9.52825
       H     9.00543   16.93425  -14.11502
       O     9.63151   16.23766  -14.47029
      H1     9.33008   15.45766  -14.05548
       H    10.80674   18.69208   -6.32529
       O    10.89250   18.31444   -7.20669
      H1    11.35373   17.48390   -6.93855
       H     8.65531   15.28813   -9.02134
       O     8.21990   16.00605   -9.50263
      H1     8.92744   16.65539   -9.68538
       H    16.43987   18.10898  -12.07417
       O    16.26665   18.94653  -11.63068
      H1    15.43575   18.80706  -11.20315
       H     7.69096    8.39439  -16.58166
       O     8.68320    8.31529  -16.46229
      H1     9.01459    8.34591  -17.37688
       H     5.20172   16.17671  -10.06688
       O     5.86494   15.93022  -10.80166
      H1     6.70056   15.93676  -10.27445
       H     7.53752   12.77104  -15.54714
       O     7.22878   13.42941  -14.94755
      H1     7.00859   14.18755  -15.51336
       H     4.51141   17.47787  -13.15542
       O     3.76457   17.88700  -12.70711
      H1     3.22798   17.17906  -12.27053
       H     3.52059   13.80767  -17.83124
       O     4.22762   14.49542  -17.77943
      H1     3.98225   15.20828  -18.40892
       H     9.01221   16.36590  -16.53918
       O     8.53912   16.79967  -17.21908
      H1     7.62073   16.48729  -17.04758
       H     3.94425   16.73409   -8.16191
       O     3.96500   15.98503   -8.75492
      H1     4.41154   15.22968   -8.27113
       H    14.89253   19.06683  -13.07984
       O    14.78910   19.15292  -14.10277
      H1    15.67296   19.54087  -14.35073
       H    14.57168   10.86625  -15.11743
       O    14.36642   11.84145  -14.85845
      H1    14.53831   11.90471  -13.93937
       H    11.44369   15.18857  -18.39088
       O    10.76941   14.81727  -18.99422
      H1    10.47743   15.52908  -19.54178
       H     6.02383   17.79626  -10.93595
       O     5.59727   18.64358  -10.84252
      H1     4.76033   18.55129  -11.35113
       H     5.73016   13.70863  -18.35837
       O     6.39996   13.00776  -18.48482
      H1     7.26020   13.14913  -18.10373
       H     6.95182   18.76596   -7.54157
       O     7.31114   17.89927   -7.38444
      H1     7.45356   17.46152   -8.24282
       H     9.46299   13.90079  -18.06109
       O     9.00169   13.40941  -17.36814
      H1     8.82169   14.12335  -16.69233
       H    12.72027   12.08004   -7.45278
       O    11.95621   12.01784   -8.05115
      H1    11.58340   12.90062   -8.01792
       H    10.15124   14.32502   -7.59841
       O    11.02916   14.67517   -7.64209
      H1    11.36537   15.09373   -6.80417
       H     5.36104   14.11622  -11.24897
       O     4.85253   13.29622  -11.54945
      H1     3.94793   13.45436  -11.19085
       H    13.48641   14.92362  -18.18748
       O    13.06470   15.74129  -17.94168
      H1    13.53205   16.38663  -18.53330
       H    12.87070   16.43002  -14.19324
       O    12.19716   16.50438  -13.46513
      H1    11.33432   16.50612  -13.86196
       H     9.50482    9.89303  -19.64237
       O     9.90469    9.24637  -19.01019
      H1    10.31115    9.86205  -18.43792
       H    10.65177   10.39393  -14.01577
       O     9.84698   10.72105  -13.50500
      H1     9.62495   10.05988  -12.85306
       H    15.13029   15.80149  -10.17998
       O    16.06077   15.43143  -10.25819
      H1    16.30684   15.63157   -9.35278
       H    11.82409   19.54060  -14.53036
       O    11.56775   19.24799  -13.64267
      H1    11.75446   18.28303  -13.72878
       H     3.06134   17.27416  -19.06820
       O     3.96914   17.23018  -18.81725
      H1     4.29504   18.12233  -19.11722
       H     9.26452    8.08054  -14.79363
       O     9.78840    7.51486  -14.20424
      H1     9.87436    7.94509  -13.31297
       H     7.41708   11.07116  -11.58318
       O     6.59053   10.66515  -11.90866
      H1     6.00716   11.44371  -12.08409
       H     5.72279   11.46166  -18.48859
       O     5.04371   10.73074  -18.62666
      H1     5.44123   10.07316  -19.19193
       H     6.19688   18.87705  -19.28586
       O     5.40860   19.38009  -19.37351
      H1     5.45032   20.14813  -18.74742
       H     9.79181   18.34836   -8.62481
       O     9.33579   18.40853   -9.49390
      H1     9.80228   19.02965  -10.06420
       H     5.76888   14.15752   -6.67370
       O     5.04816   13.82662   -7.26493
      H1     5.61519   13.37449   -7.96580
       H     5.70125   10.60851  -14.75750
       O     5.39614    9.80950  -14.28584
      H1     6.00365    9.69226  -13.63190
       H     5.71382   12.90951  -10.07702
       O     6.34075   12.64416   -9.33596
      H1     5.99934   11.77855   -9.03370
       H    12.10032   13.77468  -12.15668
       O    12.99285   14.18784  -12.21746
      H1    12.78692   14.97166  -12.78412
       H    13.93693   17.61606  -15.26069
       O    13.97636   16.61867  -15.28916
      H1    13.59609   16.26538  -16.06927
       H    10.41847   11.58845  -17.14277
       O    11.21079   11.04220  -17.30408
      H1    11.48004   10.51423  -16.50224
       H     8.82473   11.01395  -14.97029
       O     8.21935   10.82608  -15.66528
      H1     8.44124    9.93779  -15.94717

