171
frame 4 | Written by MDAnalysis XYZWriter (release 2.4.3)
       H    13.47100  -13.15555    4.30671
       O    12.63301  -13.07572    3.79538
      H1    12.01540  -13.79670    4.03394
       H    16.63800  -14.74684    1.07494
       O    16.78094  -13.80812    0.87249
      H1    16.66405  -13.77521   -0.12643
       H     9.07539  -13.28720   -0.58865
       O     8.78932  -12.91431   -1.42896
      H1     8.51218  -11.97369   -1.29064
       H    10.65001  -14.60159    2.61439
       O    10.88685  -15.12564    3.38266
      H1    11.54241  -15.68468    3.01287
       H     9.30972   -9.24491    6.74154
       O     8.41966   -9.45631    6.32695
      H1     8.54681  -10.05664    5.52442
       H    12.87439  -11.16621    1.03607
       O    12.37621  -10.57299    0.47118
      H1    11.95875  -11.16075   -0.22443
       H    12.11477  -14.30521   -1.76793
       O    12.21891  -14.85861   -2.57193
      H1    12.67430  -15.62944   -2.27162
       H    17.15397  -10.53644    0.72335
       O    16.85254   -9.86269    1.39757
      H1    15.88486   -9.66681    1.44065
       H    13.85161  -12.53424    2.44933
       O    14.22376  -12.57893    1.55529
      H1    15.09487  -12.98610    1.61607
       H     9.27077  -14.46540    6.97060
       O    10.13172  -14.33188    6.55122
      H1     9.88528  -13.93638    5.68120
       H     7.99203  -17.10134    0.38603
       O     8.14950  -16.32306    0.91690
      H1     8.21429  -16.61509    1.82221
       H     7.75186  -14.11324   -2.69421
       O     7.17213  -14.60729   -3.28973
      H1     7.74430  -14.69543   -4.10877
       H     7.09584  -10.14849   -1.53918
       O     8.01318  -10.30483   -1.38348
      H1     8.52773   -9.82011   -2.05233
       H    15.41672  -12.97783    5.62832
       O    15.29973  -13.08075    4.67095
      H1    16.04998  -12.58202    4.29852
       H     8.43735  -18.03576   -1.32017
       O     7.84038  -18.49988   -0.68221
      H1     6.97960  -18.49796   -1.15595
       H    13.54286   -9.09977    6.57406
       O    13.47611  -10.07841    6.70484
      H1    14.19882  -10.57485    6.29436
       H     5.57374  -13.69770   -3.17743
       O     4.67039  -13.36262   -3.15700
      H1     4.08432  -13.82706   -3.79644
       H     5.15222   -9.52880    2.50602
       O     5.56979  -10.28715    2.06666
      H1     6.52539  -10.07079    2.17373
       H    16.14742  -11.46561   -3.78029
       O    15.56827  -11.77219   -3.02219
      H1    15.40135  -11.04625   -2.39722
       H    13.65744   -9.35655    3.16885
       O    14.42477   -9.11679    2.59825
      H1    15.06399   -8.58036    3.12767
       H     7.72208  -13.76680    3.01636
       O     6.95781  -13.79054    3.54558
      H1     6.11863  -13.88109    3.05322
       H    12.28937  -11.37329    4.00405
       O    12.10351  -10.41046    4.05307
      H1    12.38405  -10.19842    4.94911
       H     8.82889   -9.20515    1.55149
       O     8.33948  -10.02985    1.43269
      H1     8.35269  -10.03971    0.46166
       H    13.65751  -17.85975   -2.47398
       O    13.82590  -17.15110   -1.82873
      H1    13.73932  -17.52070   -0.92007
       H    13.06468  -13.80314    0.52003
       O    12.12661  -13.94944    0.33035
      H1    11.84003  -14.86903    0.54151
       H     5.65695  -17.57229    1.94379
       O     4.98017  -16.88513    1.70525
      H1     5.35588  -16.14832    1.14430
       H    11.70525   -7.53066    5.05852
       O    10.95615   -7.37042    4.45414
      H1    11.27677   -7.55062    3.55654
       H     6.84864  -14.68929    0.73580
       O     5.83044  -14.59532    0.64101
      H1     5.67581  -13.81760    0.07083
       H    14.11208  -10.09968   -0.63622
       O    14.80764   -9.82921   -1.27209
      H1    15.08199   -8.90837   -1.05811
       H    12.09438  -12.12846   -4.74635
       O    11.30062  -11.57821   -4.69962
      H1    10.77370  -11.74650   -5.47709
       H     8.79510  -10.67298    3.28801
       O     9.31276  -11.12809    4.02286
      H1    10.14447  -10.64627    4.06605
       H     6.24926  -16.29677   -3.01836
       O     5.78367  -17.13258   -2.91658
      H1     5.44944  -17.22565   -3.84784
       H     9.47622   -6.27979   -1.03463
       O     8.98697   -6.10388   -1.88495
      H1     9.12367   -7.00229   -2.22568
       H     9.92282  -17.21398   -5.12939
       O    10.63876  -16.73500   -4.64769
      H1    10.49581  -15.84889   -4.64707
       H    16.49312  -14.46408   -2.42583
       O    16.71000  -13.80910   -1.74954
      H1    16.28321  -12.98829   -2.06388
       H    12.41972   -9.55360   -3.87922
       O    13.18637   -9.08848   -3.57637
      H1    13.83175   -9.73153   -3.22297
       H     7.43371  -18.53057    1.90649
       O     6.78378  -19.00680    2.46150
      H1     7.34510  -19.42144    3.09112
       H     5.53120  -10.71889    5.99212
       O     5.28481  -11.28759    5.23674
      H1     6.05689  -11.37276    4.65888
       H    16.54301  -15.97843    5.28062
       O    15.91266  -15.81694    4.62415
      H1    15.55875  -14.89212    4.75199
       H    10.57952  -18.56351   -2.13843
       O    10.56999  -17.69906   -1.64081
      H1    10.53504  -17.07318   -2.38026
       H    13.01842  -13.95300   -3.78214
       O    13.48002  -13.27356   -4.31159
      H1    14.42537  -13.18746   -4.06275
       H    11.17170  -16.83863   -0.11691
       O    11.01655  -16.30479    0.68346
      H1    10.06460  -16.07570    0.68318
       H    12.62231  -18.97623    0.54473
       O    13.38847  -18.37337    0.53485
      H1    14.17770  -18.95693    0.77279
       H     7.00891  -15.09369    5.02607
       O     7.27707  -15.48135    5.88582
      H1     7.38075  -16.42759    5.72299
       H    17.58083  -16.83911    1.47411
       O    16.68351  -16.45844    1.78265
      H1    16.73727  -16.41346    2.76563
       H    12.44895   -7.16945    1.54923
       O    11.73826   -7.81646    1.82115
      H1    12.16264   -8.63861    1.51995
       H    12.97670  -18.09216    2.34840
       O    13.07475  -17.82708    3.25442
      H1    13.74852  -17.12141    3.29931
       H    10.21543   -7.43835    0.84039
       O     9.29055   -7.46046    0.54559
      H1     8.91484   -6.71011    1.10296
       H     9.75758  -12.28365    2.13446
       O     9.76183  -13.07535    1.54121
      H1    10.66283  -13.03913    1.14944
       H     8.61356  -17.41451    4.35847
       O     8.74448  -16.95806    3.50270
      H1     9.54829  -16.37599    3.49171
       H    15.59978  -16.18242   -4.19957
       O    15.92151  -16.05982   -3.27479
      H1    15.21945  -16.43918   -2.74180
       H    10.62433  -16.29884    6.74916
       O    11.05096  -17.08090    6.99035
      H1    12.01084  -16.96009    7.04123
       H    10.05522  -11.91217   -1.73899
       O    10.80809  -11.36247   -2.01622
      H1    10.92565  -11.57294   -2.95586
       H    10.23532   -9.41463   -2.73750
       O     9.44818   -8.98960   -3.13310
      H1     9.78548   -8.56367   -3.90850
       H    10.43275  -12.01413    8.07935
       O    11.33488  -12.17174    7.72290
      H1    11.09365  -13.01014    7.31116
       H    11.28001   -8.81737    8.51159
       O    10.75434   -9.32341    7.86352
      H1    11.37843  -10.03438    7.69011
       H     5.34659  -10.08116    0.23618
       O     5.29961  -10.26492   -0.69589
      H1     4.69274  -11.05740   -0.73773

