171
frame 5 | Written by MDAnalysis XYZWriter (release 2.4.3)
       H    -4.44198   -8.71411    5.65286
       O    -5.15812   -8.10700    5.50309
      H1    -5.79696   -8.19422    6.20634
       H    -2.25580   -8.27370    0.71709
       O    -3.05568   -8.65392    1.11814
      H1    -3.51173   -7.92875    1.60087
       H     4.29245   -7.65118    3.83452
       O     4.69807   -6.93563    3.33410
      H1     4.06488   -6.91305    2.59490
       H     0.58507   -8.13024    1.77858
       O     1.12469   -8.80732    1.30874
      H1     1.93439   -8.27343    1.10390
       H    -4.70531   -7.61271   -1.15268
       O    -4.97627   -8.50357   -0.82977
      H1    -4.42834   -8.47779   -0.05084
       H    -0.61905   -8.47681   -2.19624
       O     0.01296   -8.65062   -2.94943
      H1    -0.49424   -9.10876   -3.61163
       H    -0.11472  -12.82832    6.48935
       O    -0.11662  -11.92087    6.84759
      H1     0.77781  -11.64056    6.83682
       H     4.73814   -6.35849    5.32105
       O     4.71577   -5.79238    6.14758
      H1     4.66340   -4.84019    5.85562
       H     6.40310   -5.97726    7.04817
       O     7.03677   -6.21405    7.76863
      H1     7.69573   -6.88546    7.37607
       H    -0.49318   -5.39679    5.82898
       O     0.11088   -6.10136    5.72953
      H1    -0.30191   -6.77884    6.30865
       H     1.05784   -5.88089    2.46770
       O     0.32561   -6.40204    2.84252
      H1     0.34138   -6.30910    3.80597
       H    -1.51990   -4.92632    0.99452
       O    -1.32907   -4.63725    0.08528
      H1    -0.37583   -4.62552   -0.01744
       H     3.27273   -2.10147    6.71789
       O     3.60415   -3.00196    6.83398
      H1     2.90794   -3.50588    7.30210
       H     5.88368   -5.72398    2.84022
       O     6.64227   -5.19693    2.59396
      H1     6.39394   -4.77111    1.77890
       H     0.31328   -3.10389    2.83931
       O     0.96054   -2.80762    3.45849
      H1     0.49771   -2.25318    4.17687
       H     5.48265   -8.70333    2.82825
       O     5.86856   -9.55761    2.57119
      H1     6.81123   -9.45927    2.56840
       H     2.09469  -11.04566    3.85937
       O     2.51841  -10.51517    3.19848
      H1     1.82181  -10.13326    2.68601
       H     2.13009   -2.51212   -1.06687
       O     2.66362   -3.01971   -1.74186
      H1     2.39932   -2.81586   -2.66619
       H     1.58727   -4.42704   -1.12717
       O     1.07251   -5.19304   -0.87741
      H1     0.69866   -5.46636   -1.71725
       H     3.77591   -3.40121    5.04584
       O     4.25286   -3.44155    4.17962
      H1     3.72880   -3.96951    3.52583
       H     2.69930   -4.04401    1.60075
       O     2.55534   -4.65845    2.37464
      H1     2.08354   -4.10544    2.98320
       H    -3.48851  -10.33418    6.91298
       O    -3.05089   -9.74053    6.28136
      H1    -3.00767  -10.15135    5.38885
       H     0.11488   -3.24094    8.10875
       O    -0.59277   -2.57364    8.18691
      H1    -0.45297   -2.03586    7.43336
       H    -1.73025   -5.60820    8.86401
       O    -1.24859   -6.20579    9.53927
      H1    -1.47105   -5.70339   10.28306
       H    -5.25706   -6.03516    5.35297
       O    -5.24778   -5.09009    5.13453
      H1    -5.99279   -4.84821    4.60355
       H     5.90185   -8.96797    6.87713
       O     6.49544   -9.64437    6.52478
      H1     7.29547   -9.09021    6.57842
       H     2.86730   -0.19109    3.22323
       O     2.21940   -0.50470    2.58318
      H1     1.96216   -1.32158    2.98890
       H    -0.59100   -6.69221   -0.16122
       O    -0.87089   -7.62684   -0.19751
      H1    -0.09443   -8.12400    0.21622
       H     1.13799  -10.28735    9.70247
       O     0.30155  -10.58315    9.46796
      H1     0.39757  -11.26753    8.78555
       H    -1.13472   -9.31228    6.98293
       O    -0.30724   -8.76522    7.08108
      H1     0.03763   -8.93013    7.96950
       H     3.45266   -5.55857   10.20587
       O     2.66489   -6.13793   10.06590
      H1     2.11702   -5.73874   10.70886
       H     0.59357   -9.56408   -1.72098
       O     0.91675  -10.15884   -1.02613
      H1     1.21556   -9.67267   -0.23634
       H     0.73711   -0.40887    5.93346
       O    -0.11509   -0.76749    5.59436
      H1    -0.73780   -0.03248    5.71841
       H    -3.60754  -10.31164    3.01703
       O    -3.34216  -10.99974    3.67339
      H1    -3.96255  -11.72759    3.55603
       H     5.42817   -7.39999    8.39715
       O     4.80960   -8.08172    8.06504
      H1     4.21731   -7.50226    7.55693
       H    -2.51311   -7.46962    8.97149
       O    -3.16060   -8.17275    8.91304
      H1    -3.01487   -8.51860    8.02753
       H    -2.13173   -3.67133    8.07223
       O    -2.50659   -4.56840    7.97797
      H1    -3.41835   -4.56601    8.33465
       H     3.09385   -0.08195    6.15753
       O     2.54105   -0.48111    6.89757
      H1     2.76467   -0.25798    7.76469
       H    -4.77004   -2.12783    5.52744
       O    -3.92113   -1.75827    5.31900
      H1    -3.27585   -2.47853    5.50715
       H    -0.13409   -9.56747    5.18069
       O    -0.06872   -9.33314    4.22488
      H1     0.54257   -8.58082    4.27061
       H     2.69479  -11.49086    6.04816
       O     2.60227  -11.08102    6.88915
      H1     2.91218  -10.18647    6.76119
       H    -3.24584   -4.71403    5.15454
       O    -2.32086   -4.57861    5.34934
      H1    -2.21774   -4.65234    6.33883
       H     3.55086   -9.78248    4.28664
       O     4.09443   -9.20359    4.88172
      H1     4.97334   -9.56605    4.96257
       H    -3.68677   -6.16246    2.57157
       O    -4.44772   -6.75906    2.43176
      H1    -4.62457   -6.97041    3.34214
       H    -3.48931   -4.64930   -1.45801
       O    -4.36764   -4.93869   -1.28262
      H1    -4.66252   -4.78441   -2.14881
       H     3.92498   -8.00898    0.40743
       O     3.43807   -7.27323    0.77216
      H1     3.36346   -6.49876    0.26575
       H    -0.37188  -11.16146    3.34620
       O    -0.22041  -11.89415    2.75747
      H1    -0.82233  -11.66295    2.01246
       H     1.13215   -4.85702    6.91406
       O     1.40316   -4.38008    7.76933
      H1     1.42598   -5.04467    8.48124
       H     3.94123   -4.01262   -0.91457
       O     4.32103   -4.39463   -0.15299
      H1     5.08880   -3.83416   -0.03201
       H    -2.03948   -1.72786    1.34873
       O    -1.47084   -2.03265    0.60487
      H1    -1.64276   -2.98911    0.53641
       H    -6.29774  -10.56129    3.72483
       O    -6.33495   -9.65671    3.36905
      H1    -5.99966   -9.19311    4.13848
       H    -3.96059   -1.79006    3.56002
       O    -3.90692   -2.10247    2.56768
      H1    -4.50106   -1.60013    2.02311
       H    -3.19793   -4.12582    2.35420
       O    -2.59241   -4.82450    2.52543
      H1    -1.99393   -4.60389    3.22970
       H     1.54573   -1.49803    1.17794
       O     1.45000   -2.22841    0.54857
      H1     0.55959   -2.07664    0.15277
       H    -2.17110  -10.58983    0.18063
       O    -1.53695  -11.20118   -0.31121
      H1    -0.70757  -10.68778   -0.39045
       H     5.09196   -9.87053    1.08341
       O     4.74998   -9.78669    0.19903
      H1     4.45052  -10.69639   -0.07508
       H    -5.41017   -5.06991    1.87029
       O    -5.87045   -4.44733    1.25181
      H1    -5.46987   -4.51680    0.36533

