171
frame 8 | Written by MDAnalysis XYZWriter (release 2.4.3)
       H    -8.17699   19.44248   -6.94791
       O    -8.30261   19.54813   -5.99306
      H1    -9.21048   19.82841   -5.88550
       H   -13.44800   18.49700  -17.95395
       O   -12.55587   18.19248  -18.23094
      H1   -11.96544   18.81656  -17.87492
       H    -8.52440   11.37879  -12.14579
       O    -9.01363   12.06335  -12.62917
      H1    -9.13650   12.75693  -11.91698
       H    -3.94875   14.38405  -10.16935
       O    -4.38045   13.52335   -9.99745
      H1    -4.70096   13.20023  -10.85337
       H   -14.67282   12.75938   -9.87211
       O   -14.49421   13.15084   -8.94431
      H1   -15.38799   13.49699   -8.72127
       H   -14.44859   12.55493  -12.18027
       O   -14.42258   11.98576  -11.35987
      H1   -15.26061   11.58385  -11.33013
       H   -15.52327   15.47608  -11.88832
       O   -16.33253   15.86439  -12.25266
      H1   -16.46216   16.75187  -11.93051
       H    -9.18060   11.35169   -8.89578
       O    -8.96783   10.39411   -8.81590
      H1    -9.02810   10.19799   -7.87082
       H    -9.71161   17.46707   -9.84992
       O   -10.19511   17.62984  -10.71701
      H1    -9.55986   17.60014  -11.43573
       H   -16.33225   18.72434   -6.19841
       O   -16.13089   19.63705   -5.91563
      H1   -16.90909   20.18190   -6.30221
       H   -14.39064    8.93689  -10.66260
       O   -13.57500    9.09759  -11.15299
      H1   -13.58768   10.03973  -11.36697
       H   -16.79621   15.15004  -13.84631
       O   -17.40211   14.89214  -14.55506
      H1   -17.81459   15.73959  -14.71640
       H   -13.84017   14.37556   -4.63343
       O   -14.15163   14.01934   -5.46256
      H1   -13.46473   14.15789   -6.11306
       H   -11.95331   10.85838   -6.30240
       O   -11.61672   10.45189   -7.12493
      H1   -12.34200   10.48105   -7.70103
       H   -10.58485    9.42569   -9.66805
       O   -11.08460    8.59579   -9.81110
      H1   -11.94511    8.86456  -10.20688
       H   -11.01369   15.31864  -13.95961
       O   -11.01738   14.45896  -13.53325
      H1   -10.50715   13.83654  -14.10515
       H   -16.09678   19.74542  -16.33857
       O   -16.18478   19.53016  -15.39175
      H1   -15.38656   18.98904  -15.23034
       H   -10.98691   15.61927   -3.76065
       O   -11.23911   16.58610   -3.87947
      H1   -10.45380   17.12719   -3.60885
       H    -6.20197   14.87727  -10.92526
       O    -6.75274   15.61358  -10.77015
      H1    -6.29879   16.05206  -10.03385
       H    -8.83532   18.60072  -13.45842
       O    -8.33247   17.90554  -12.99435
      H1    -7.77047   17.41510  -13.62596
       H    -9.02765   16.60716   -7.37401
       O    -9.76819   16.77006   -7.99809
      H1   -10.54234   17.04570   -7.41332
       H   -13.36282   14.17176  -13.64447
       O   -14.25071   13.95899  -13.32469
      H1   -14.60871   13.47873  -14.07568
       H    -7.13492   10.14221  -11.10460
       O    -7.68236    9.95999  -11.85774
      H1    -8.38126    9.26405  -11.72382
       H    -5.40751   11.11602  -12.71623
       O    -5.34989   11.92804  -12.17827
      H1    -5.69036   12.54562  -12.83727
       H   -11.03790   10.57422  -14.10304
       O   -10.93579   10.15519  -14.92119
      H1   -10.47551    9.37480  -14.63326
       H    -7.83939   17.77516   -5.92144
       O    -7.77131   16.84007   -5.80203
      H1    -6.87943   16.59595   -5.90309
       H   -17.68310   14.32058   -9.41985
       O   -17.25719   13.79160   -8.76377
      H1   -17.44561   14.12626   -7.80003
       H    -5.25632   17.29858  -13.86314
       O    -6.04794   16.91956  -14.31328
      H1    -6.18455   17.26316  -15.18641
       H    -6.73386   16.83815  -17.64083
       O    -7.37324   16.83641  -16.88130
      H1    -8.31742   16.71947  -17.20082
       H   -13.34298   18.04136  -10.16087
       O   -13.63025   17.17664  -10.45595
      H1   -12.85328   16.57757  -10.65815
       H   -12.58955   16.55418  -17.59977
       O   -12.19470   15.83970  -17.05869
      H1   -12.65329   15.01663  -17.17770
       H    -5.16101   16.36356   -7.88794
       O    -5.35001   16.93504   -8.68178
      H1    -4.92373   17.79069   -8.35890
       H    -6.25671   14.49043   -6.02411
       O    -5.59011   15.16693   -6.31310
      H1    -4.86522   15.03819   -5.63547
       H   -12.77033   13.20021  -17.30405
       O   -13.61523   13.60341  -17.48390
      H1   -13.86848   13.41385  -18.45003
       H   -16.00655   19.01315  -11.67830
       O   -16.83613   18.52139  -11.52182
      H1   -17.62648   18.97401  -11.81406
       H    -7.04456   14.96405  -16.28010
       O    -7.28430   14.06949  -16.48608
      H1    -6.89669   13.56689  -15.80164
       H   -10.62322   12.44110  -16.82908
       O   -11.18993   12.33939  -17.65436
      H1   -11.24101   11.35837  -17.64589
       H   -10.68569   16.13009  -18.25164
       O    -9.96825   16.39940  -18.86913
      H1   -10.24519   17.20582  -19.28713
       H   -12.90752   17.36564   -6.58115
       O   -11.97270   17.43887   -6.40613
      H1   -11.77475   17.00276   -5.55557
       H    -9.36516   13.52446   -9.32441
       O    -9.61146   12.97245   -8.52850
      H1   -10.26422   13.57732   -8.13579
       H    -7.81162   13.38596  -13.22756
       O    -6.94074   13.76453  -13.42164
      H1    -6.95355   14.72386  -13.30123
       H   -16.58628   18.24104   -9.78785
       O   -16.60447   18.65289   -8.92546
      H1   -16.59439   19.64403   -9.13190
       H   -12.75244   13.71252   -8.25250
       O   -12.24093   14.04458   -7.48360
      H1   -11.90021   14.91561   -7.71313
       H   -14.99480   17.54821   -7.97896
       O   -14.32423   16.97473   -7.55750
      H1   -13.96100   16.47845   -8.24441
       H   -11.40825   17.27074  -15.49398
       O   -11.54885   17.36189  -14.53302
      H1   -12.47964   17.30808  -14.28954
       H    -6.55330   12.69947   -6.87621
       O    -7.36746   13.05562   -6.51102
      H1    -8.01498   12.98645   -7.25303
       H    -6.20392    9.18749   -9.06901
       O    -6.32975   10.08892   -9.42497
      H1    -7.29507   10.24507   -9.39943
       H   -14.91666   12.75568  -16.25262
       O   -15.45356   12.60767  -15.43080
      H1   -16.40751   12.74541  -15.71315
       H   -10.52327   18.88917  -14.49994
       O    -9.83109   19.48623  -14.85049
      H1   -10.09934   20.37193  -14.63440
       H   -11.72596   14.86524  -11.80694
       O   -11.73460   15.33423  -10.96127
      H1   -11.18513   16.08505  -11.16524
       H   -15.07232   17.03404  -15.45005
       O   -14.42357   17.40447  -14.81708
      H1   -14.64638   17.04290  -13.93930
       H    -9.06010   13.62065  -15.77794
       O    -9.65261   12.95893  -15.46525
      H1    -9.31678   12.35958  -14.71762
       H   -10.00608   14.64380  -11.09684
       O    -9.23212   14.15592  -10.85823
      H1    -8.49364   14.85970  -10.92725
       H   -11.38150   13.46909   -4.14988
       O   -10.85629   13.83089   -3.44831
      H1    -9.97221   13.44768   -3.57214
       H   -14.86168   15.25915  -16.99252
       O   -15.55563   15.79935  -16.71809
      H1   -16.24298   15.16335  -16.47429
       H   -14.95352   10.09034   -8.24814
       O   -14.38929   10.73019   -7.81796
      H1   -14.43045   11.58832   -8.26019
       H   -16.05354   14.41329   -5.93988
       O   -16.98721   14.40837   -6.00494
      H1   -17.25409   13.57840   -5.47917

