171
frame 1 | Written by MDAnalysis XYZWriter (release 2.4.3)
       H     9.02527    5.11580   10.87729
       O     8.89260    5.96507   10.47235
      H1     8.36253    6.57116   10.95142
       H     5.56383    3.50708   10.56286
       O     4.69198    3.36585   10.99112
      H1     4.69938    2.50897   11.50292
       H     1.05207    4.57245    3.17103
       O     0.61963    5.40183    3.41471
      H1     0.99724    6.19804    3.03178
       H     7.13390    3.50152    4.83915
       O     7.84062    2.83207    4.79338
      H1     7.58319    2.22994    5.55825
       H     2.81476    3.54855    8.42766
       O     3.75078    3.67551    8.29300
      H1     4.13465    3.53488    9.19941
       H     1.47922    4.76637    6.66877
       O     1.05608    4.58042    7.50915
      H1     1.11384    5.39870    7.97190
       H     4.67209    5.87934    1.86970
       O     4.67001    5.13008    1.34543
      H1     3.72749    4.92647    1.17512
       H    -1.82118    4.68461   13.66734
       O    -2.11001    4.58125   14.57136
      H1    -1.24979    4.28098   14.89456
       H     1.91645    3.43247    1.29848
       O     2.41643    3.70420    0.48795
      H1     2.78444    2.88967    0.21098
       H     3.32540   -3.56662    7.80849
       O     4.00560   -4.16870    7.54194
      H1     3.63751   -5.08276    7.70966
       H     3.48562    5.10212    5.23628
       O     2.56721    5.21637    5.41808
      H1     2.13630    4.95622    4.57662
       H     3.31214   -2.09059    4.43880
       O     2.55013   -1.54835    4.52486
      H1     2.94058   -0.62734    4.60050
       H    -1.64161    5.17595   10.84128
       O    -2.00430    4.32344   10.97925
      H1    -2.97283    4.51772   11.05589
       H     5.96994    4.88487    4.08142
       O     5.50142    4.74976    4.90783
      H1     5.94388    5.28998    5.62151
       H     0.10460   -0.18731   14.38068
       O    -0.23949    0.36020   13.65804
      H1    -0.62965    1.18909   14.07529
       H     0.31142    8.87221    6.63793
       O     0.25756    9.36715    7.49086
      H1     0.88492   10.07008    7.49809
       H     3.55098    2.50350   14.18371
       O     4.46260    2.08819   14.18991
      H1     4.71073    2.17108   15.12537
       H     0.48234   -2.51141    8.69546
       O    -0.27971   -2.88442    9.25123
      H1    -1.07070   -2.61643    8.80952
       H     0.35893    6.86960   10.20091
       O    -0.31440    6.78980   10.86347
      H1    -0.02292    7.49150   11.48782
       H     2.74922   -1.03444   10.25275
       O     3.23218   -0.83549    9.41714
      H1     4.08840   -0.80415    9.84755
       H     0.84438   -1.31569    4.34992
       O    -0.03121   -0.90206    4.38208
      H1    -0.54334   -1.24265    3.64529
       H     7.05705    0.25450    6.09937
       O     7.02140    1.00454    6.72743
      H1     7.56669    0.91407    7.47599
       H     5.62765    7.02075   15.41622
       O     6.05811    6.51764   14.67757
      H1     5.45646    5.98629   14.16152
       H     8.83193    7.12707    8.45281
       O     8.79002    7.14323    7.51587
      H1     9.31013    6.37881    7.24651
       H    -1.51786    5.67759    3.40976
       O    -2.42827    5.77356    3.20591
      H1    -2.86517    5.31274    4.00577
       H     6.26908    1.63212    2.15337
       O     6.33521    1.40387    3.07498
      H1     6.90077    2.06177    3.51383
       H     6.83992    6.60672    7.25821
       O     6.26009    5.83732    7.38783
      H1     5.37990    6.23862    7.46094
       H    -1.51233    7.09682    9.61340
       O    -1.96616    7.07990    8.74627
      H1    -1.37710    6.67287    8.12050
       H    -0.31539   -0.94737   11.95542
       O     0.37657   -1.18296   11.33815
      H1     0.11794   -1.56529   10.53014
       H     6.69754    2.68631   13.34862
       O     6.99112    2.26296   12.56417
      H1     6.24508    1.64514   12.24939
       H    -4.16772    4.80540    7.69160
       O    -4.16221    5.33035    8.49892
      H1    -3.23762    5.44648    8.72327
       H    -1.20605   -1.71827    5.55260
       O    -1.92808   -1.62184    6.23794
      H1    -1.59029   -0.98598    6.88596
       H     9.49694   -0.53370    8.65765
       O     8.83318    0.13018    8.98941
      H1     8.24754   -0.45633    9.48736
       H     5.20404    1.29782    6.81835
       O     4.23534    1.35072    6.63159
      H1     4.07307    2.20125    7.10697
       H     1.41790    5.51182   13.21730
       O     1.70943    6.39483   13.53472
      H1     1.93247    6.17665   14.43259
       H    -2.71235    1.74963    7.37699
       O    -3.58645    1.90144    7.00436
      H1    -3.45524    2.63919    6.35244
       H     2.11711   -2.17801    6.49427
       O     2.07745   -2.36690    7.47675
      H1     2.68530   -1.74864    7.96662
       H     4.02488    4.71880   12.25729
       O     4.14905    5.38806   12.95169
      H1     3.28859    5.80974   13.03930
       H    -1.52558    3.15197    9.06510
       O    -1.18255    3.03845    8.12308
      H1    -0.36150    3.59409    8.01148
       H     5.87159   -0.67425   11.46164
       O     5.24114    0.08566   11.39158
      H1     4.68478   -0.09730   12.21318
       H     4.76741    6.28209   11.41600
       O     4.86133    6.93788   10.68824
      H1     5.74229    7.31744   10.81992
       H     1.41433    1.36013    8.50458
       O     1.86930    1.77037    9.30346
      H1     2.68882    1.24894    9.26076
       H     1.01851    0.89448   12.38799
       O     1.63375    1.53455   12.09477
      H1     1.67004    1.42880   11.12781
       H     2.11870    6.90583    8.43994
       O     1.15491    7.09905    8.47223
      H1     1.17607    8.05387    8.30157
       H     9.88443    3.21692   11.80851
       O     9.18070    3.46916   11.19923
      H1     8.30428    3.20216   11.58551
       H     1.16482    8.21341    4.75568
       O     0.35987    7.83531    5.12478
      H1     0.45416    6.89855    5.23126
       H     3.73701    5.47825    8.20798
       O     3.70586    6.44250    8.24478
      H1     4.20983    6.56991    9.08528
       H    -0.47738    1.72190    7.33310
       O    -0.12911    0.82612    7.09731
      H1    -0.01111    0.76533    6.16449
       H    -4.46839    4.28444    5.13977
       O    -3.55532    4.05045    5.16494
      H1    -3.41667    3.20526    4.68733
       H     0.61744    2.37324    2.66832
       O     1.44537    2.79217    2.90053
      H1     2.06326    2.10649    3.17864
       H     0.56087    7.93551   13.66119
       O     0.09811    8.77775   13.42013
      H1    -0.31725    8.91253   14.29994
       H     3.66665    1.30649    4.83663
       O     3.55540    1.11993    3.84409
      H1     4.48505    1.24470    3.58182
       H     3.91663    0.46803   13.77554
       O     3.37448   -0.21787   13.37193
      H1     2.75922    0.29284   12.79253
       H     6.98810    8.58066   11.79112
       O     7.16125    8.36282   10.86174
      H1     7.32866    9.29678   10.58194
       H    -0.57678    3.62830   11.92864
       O     0.18984    3.72308   12.52675
      H1     0.75711    2.91242   12.37041
       H     9.90178    2.92438    9.55395
       O    10.28338    2.22354    9.00663
      H1     9.56619    1.53214    9.04814
       H     6.74526    4.13374    8.42030
       O     7.00421    3.60544    9.16644
      H1     7.76823    4.07272    9.46135

