171
frame 1 | Written by MDAnalysis XYZWriter (release 2.4.3)
       H    17.05310   11.86372    3.51814
       O    16.64829   11.50243    2.69033
      H1    17.34928   10.95863    2.29453
       H    16.13343    6.25006    4.25952
       O    16.68566    5.46489    4.02135
      H1    17.62099    5.82940    4.24901
       H    17.17927    5.33062   11.48151
       O    16.43034    5.94057   11.73759
      H1    15.78859    5.21944   12.04148
       H    18.70474    4.02865    9.91123
       O    18.45253    4.38423   10.76359
      H1    18.88695    3.62232   11.24096
       H    18.55052    9.69530    0.57460
       O    18.75630   10.11620    1.40161
      H1    19.72682   10.02245    1.52193
       H    13.65401   18.35606   11.81067
       O    14.35705   17.74920   11.60284
      H1    13.95382   17.05198   11.02360
       H    14.62235   14.33472    1.82904
       O    14.97464   14.39521    0.93730
      H1    15.82385   13.87629    0.86633
       H    18.80049   13.89230    1.74515
       O    19.70696   13.79221    1.44877
      H1    20.28770   13.89537    2.24350
       H    18.32278   18.25267   12.45178
       O    19.00020   17.77194   12.98376
      H1    19.66249   18.43013   13.22475
       H    18.63507   10.84875   11.84523
       O    18.94421   10.68208   12.81854
      H1    19.18166    9.72537   12.84966
       H    20.20896   16.28045    9.52866
       O    19.24940   16.46794    9.55776
      H1    18.88300   16.22325    8.70098
       H    19.55018   16.64350   16.57360
       O    19.79854   16.18890   15.77221
      H1    19.28045   15.33063   15.94079
       H    11.89355    9.41780   13.46118
       O    11.91938    9.74573   12.56162
      H1    12.05810    8.89648   12.09204
       H    13.42956   11.10468    8.26544
       O    12.54579   10.81777    8.60760
      H1    12.27748   11.59140    9.16627
       H    18.93403   17.01867    2.25013
       O    19.66267   17.64423    2.05667
      H1    19.23920   18.50259    2.23187
       H    13.51533   15.57764    7.30038
       O    13.52034   14.87002    7.97416
      H1    14.50778   14.75443    8.13801
       H    15.05728    9.47303    8.89911
       O    15.11556    8.91959    9.67534
      H1    14.26227    8.41312    9.52843
       H    14.68205    9.62748   11.46869
       O    14.47331   10.13094   12.23984
      H1    13.51737   10.00233   12.37712
       H    14.03399   16.29894    3.05495
       O    13.76849   15.49196    3.42747
      H1    13.50107   15.72075    4.35564
       H    12.90575    6.74746    7.02496
       O    12.77115    7.03774    6.08685
      H1    11.81697    7.00423    5.98375
       H    16.98714    8.63881    3.69345
       O    17.89696    8.81348    3.62860
      H1    18.07045    9.03589    2.68261
       H    18.85069    9.32385    6.19226
       O    18.95399    8.47076    6.63869
      H1    18.05073    8.20496    6.94429
       H    15.66936   13.64100    9.12618
       O    16.06812   14.48028    8.77631
      H1    16.06395   15.14131    9.51698
       H    17.96106   10.19159    4.62056
       O    18.04171   10.97008    5.18576
      H1    18.98560   11.10610    5.13313
       H    15.68084    7.15424    7.85536
       O    16.22730    7.53405    7.10295
      H1    15.69590    7.95087    6.44470
       H    12.54588   17.35862    5.84854
       O    13.46890   17.10622    5.95502
      H1    14.02382   17.62104    5.40768
       H     9.98415   14.21249    4.95451
       O    10.43586   13.36339    4.70201
      H1    11.41958   13.61472    4.88091
       H    16.78353   20.45185   11.77758
       O    16.94902   19.51766   11.47443
      H1    16.17356   18.97421   11.81239
       H    16.20204   18.54220    4.79754
       O    15.45563   18.21907    4.32213
      H1    15.01950   19.05948    4.02253
       H    18.03553   17.99559   14.47898
       O    17.38312   18.34128   15.09441
      H1    17.81884   18.17802   15.90961
       H    17.87296   10.78184    8.64031
       O    17.90076   11.53513    8.04488
      H1    18.13725   11.18262    7.20042
       H    14.58625    7.88682    3.58773
       O    14.90593    7.68525    4.46922
      H1    14.18107    7.27098    4.94797
       H    13.85771   13.71774    4.76936
       O    13.09897   13.43160    5.25314
      H1    13.40609   13.45508    6.15030
       H    18.70159   14.11304   12.34133
       O    17.78882   13.76739   12.12182
      H1    17.45960   13.53855   12.97971
       H    17.27085   10.57291   13.69088
       O    16.37036   10.66921   14.08584
      H1    15.71518   10.25200   13.50348
       H    13.56838   18.12662    9.23523
       O    14.08707   18.57782    8.57878
      H1    13.56590   18.56985    7.73882
       H    17.63922   19.03784    6.26174
       O    17.95392   18.63860    5.46380
      H1    18.85269   19.01475    5.25955
       H    18.65127    7.75610   14.17947
       O    19.37242    7.96096   13.53939
      H1    20.06289    7.36259   13.85636
       H    16.16863   11.03781    7.84220
       O    15.28484   10.81236    7.68849
      H1    15.20930   10.77541    6.69092
       H    18.18588   13.34691   15.98123
       O    18.04583   13.99966   16.66230
      H1    17.08013   14.16376   16.70880
       H    15.11623    9.57871    4.73134
       O    15.08771   10.53114    4.84104
      H1    15.58065   10.92837    4.06292
       H    10.98884   11.25717    6.78050
       O    10.12527   11.49222    6.50733
      H1    10.22347   12.15664    5.75230
       H    14.56462   16.04771   12.79264
       O    14.50532   15.14779   13.11584
      H1    14.85149   14.50174   12.43652
       H    17.28017   10.24576   17.05312
       O    16.62573    9.60602   16.69662
      H1    16.60556    9.79259   15.77216
       H    11.13618   13.28430    9.73861
       O    11.49567   12.81546   10.44655
      H1    10.75075   12.60747   10.99457
       H    18.36017    9.30169    9.97399
       O    17.62739    9.89510   10.18465
      H1    16.84016    9.33484    9.97586
       H    17.25196   16.59964    4.06721
       O    17.83496   15.91567    3.62396
      H1    18.44131   15.72747    4.35111
       H    17.12549   15.54031    7.70402
       O    17.68762   16.11201    7.17632
      H1    17.19436   16.77591    6.66847
       H    13.09267   15.16173   10.86080
       O    12.91435   15.87643   10.24594
      H1    13.19848   15.66118    9.35709
       H    14.22300   14.86542   15.01124
       O    13.63843   15.12391   15.70198
      H1    12.74137   14.83373   15.40536
       H    16.95079   14.41538    4.40167
       O    16.50204   13.75747    5.00919
      H1    17.23257   13.59968    5.67498
       H    16.12659    8.36099   13.84352
       O    16.32752    7.43561   14.06564
      H1    16.50486    7.01270   13.20360
       H    13.34423   13.01451   10.69954
       O    14.22201   13.02779   11.06971
      H1    14.39683   12.16349   11.39166
       H    14.45960    5.67402    9.30845
       O    15.41798    5.92059    9.33493
      H1    15.71830    5.98030   10.27276
       H    12.85763   10.82517    3.11227
       O    12.85910   11.06470    2.17498
      H1    11.98239   10.92046    1.78789
       H    17.67998   16.29520   10.55276
       O    16.75633   16.27870   10.84902
      H1    16.76755   15.55690   11.51877
       H    18.96437   12.66122    8.96318
       O    19.43299   13.28279    9.55028
      H1    18.92473   13.45215   10.33507

