171
frame 6 | Written by MDAnalysis XYZWriter (release 2.4.3)
       H    -1.02201   16.24016   -3.72080
       O    -1.75929   15.82172   -3.23098
      H1    -1.88894   16.48217   -2.55036
       H     1.25205   15.92283   -1.61458
       O     0.44105   15.57624   -1.15518
      H1    -0.05069   15.08455   -1.80874
       H     2.55365   10.37333   -1.78925
       O     2.47719    9.67279   -2.44343
      H1     2.65349    8.79704   -2.10247
       H    -2.09908   14.11191    3.39525
       O    -2.17675   15.05120    3.41232
      H1    -2.54961   15.27216    2.56072
       H     3.02986   11.88771   -6.30113
       O     3.94756   12.06787   -6.47967
      H1     4.11436   12.91955   -6.98108
       H    -6.68295    9.48777   -6.74736
       O    -7.04883    8.97474   -6.00050
      H1    -7.44800    8.20680   -6.43813
       H    -0.52863    9.04429   -5.36249
       O    -0.42048    8.31013   -5.99573
      H1    -1.23325    8.44820   -6.54429
       H    -2.72857    7.64498   -0.28372
       O    -3.38877    7.02991    0.04399
      H1    -3.63209    6.54129   -0.72373
       H    -4.20209    7.36806   -5.52763
       O    -4.39600    8.32291   -5.47733
      H1    -5.34682    8.42835   -5.55196
       H    -4.74241    9.66144   -3.74298
       O    -4.68575   10.18688   -2.91343
      H1    -5.24446    9.64671   -2.30095
       H    -7.88779   12.27026   -4.26355
       O    -7.78186   13.19684   -4.29961
      H1    -7.78134   13.41165   -5.22479
       H    -0.05534   17.24904   -5.57014
       O     0.44033   16.99369   -4.78985
      H1     0.89054   17.85677   -4.60762
       H    -4.70877    5.64229   -3.43111
       O    -5.01547    5.72365   -2.50256
      H1    -5.70469    5.12200   -2.39755
       H     2.79991   12.55820   -0.48935
       O     3.01450   11.65609   -0.60843
      H1     3.97771   11.64634   -0.81205
       H    -3.25651    5.83638    1.30463
       O    -3.31456    4.94087    1.68642
      H1    -2.63764    4.90024    2.41765
       H     0.64428    7.48215    0.45503
       O     1.44531    7.05793    0.77207
      H1     2.03400    7.74977    1.14701
       H    -2.10949    6.61085   -3.14188
       O    -1.33925    6.01137   -3.04347
      H1    -1.56447    5.64902   -2.17570
       H    -6.70332    8.40254    2.04183
       O    -7.11454    8.18593    1.15942
      H1    -6.45785    8.31428    0.55670
       H    -7.89050   12.57156    2.45263
       O    -7.38920   11.73914    2.50820
      H1    -7.61045   11.31962    1.63755
       H     2.49633   16.90180   -2.78899
       O     2.54587   15.92392   -2.75462
      H1     3.26198   15.71501   -2.07960
       H     0.95539   14.63585   -7.21769
       O     0.33753   14.30695   -7.87041
      H1     0.62642   13.39335   -7.97853
       H    -6.30966   10.49188   -8.57688
       O    -5.72742   10.83551   -7.84201
      H1    -4.94801   11.31285   -8.28055
       H    -3.69694    8.38687    1.67898
       O    -4.03808    8.93547    2.42129
      H1    -4.43120    9.66884    1.97522
       H    -0.06225    5.67846   -7.90400
       O     0.17267    6.58446   -8.02804
      H1     0.17789    7.01694   -7.17962
       H     1.12327   12.31880   -4.64899
       O     1.36134   12.26357   -5.56722
      H1     0.63172   11.95986   -6.09327
       H    -1.84716   11.21024   -1.25558
       O    -1.99516   11.23274   -2.24961
      H1    -2.90581   11.18440   -2.34549
       H     2.45703    7.10593   -0.61975
       O     2.94808    7.15246   -1.47894
      H1     2.37764    6.71953   -2.17877
       H    -7.12351   16.03488   -1.94795
       O    -6.67854   15.79849   -1.14768
      H1    -6.91525   14.83924   -0.87597
       H    -4.12644   15.72885   -5.28062
       O    -4.33106   16.57511   -5.71423
      H1    -4.96185   16.94253   -5.07088
       H    -5.35943   12.28795   -2.94034
       O    -5.38906   13.24531   -3.05805
      H1    -6.34057   13.38615   -3.36045
       H     1.90882   13.87862    1.36016
       O     1.33387   13.55789    0.63554
      H1     1.06446   14.27985    0.05633
       H     4.29569   11.65502   -4.00000
       O     4.51801   10.76811   -3.68851
      H1     3.61929   10.55037   -3.34824
       H    -0.40322   10.38608   -7.03758
       O    -0.21951   11.06578   -7.69847
      H1     0.61797   10.92191   -8.14827
       H    -4.64148    4.94447   -5.81662
       O    -4.16724    5.47946   -5.12002
      H1    -3.45529    4.84596   -4.89934
       H    -4.64992   14.51757    2.31834
       O    -4.37210   15.11816    1.62001
      H1    -4.91130   15.87510    1.83592
       H    -4.47353   12.12364    3.67098
       O    -4.77382   12.42388    2.79887
      H1    -5.68500   12.19562    2.69778
       H    -6.78795   10.53425   -0.25935
       O    -5.81940   10.76489   -0.01832
      H1    -5.73228   11.75915   -0.04986
       H    -0.71604   18.30065    1.51988
       O    -0.53206   18.02224    0.58811
      H1    -0.33291   17.09207    0.54465
       H    -0.73078    9.38866    2.95981
       O    -1.52819    9.94867    2.68625
      H1    -2.27222    9.41837    2.96212
       H    -2.17332   10.38852   -7.44056
       O    -2.50640    9.49170   -7.21487
      H1    -3.28107    9.58066   -6.70623
       H    -1.06833   11.76903    4.89569
       O    -0.94707   12.32333    4.13278
      H1    -1.19501   11.70394    3.45142
       H    -0.80397   11.19836    0.94113
       O    -0.42902   11.50450    0.08094
      H1     0.06437   12.31274    0.27035
       H     2.12668    6.23556   -4.24706
       O     1.51967    6.04545   -3.50965
      H1     0.68674    6.21657   -3.96321
       H    -0.74004    9.35309    0.08217
       O    -0.85038    8.48763   -0.28661
      H1    -0.54099    8.58967   -1.21656
       H    -1.66418   17.97959   -0.81988
       O    -2.37501   18.27428   -1.39236
      H1    -3.04775   18.66510   -0.88379
       H     2.34393   12.25754    2.61895
       O     2.94356   11.65941    2.12337
      H1     2.65707   11.70826    1.18839
       H    -5.41636   13.30228   -1.02779
       O    -5.83831   13.29414   -0.14014
      H1    -5.45124   13.88790    0.54517
       H    -3.74606   17.34952   -2.25009
       O    -4.54458   17.02311   -2.66505
      H1    -5.05055   16.57726   -1.96403
       H     1.64161   15.74466   -5.40497
       O     2.06860   15.02756   -5.96608
      H1     1.71298   14.16196   -5.67862
       H    -2.43895   13.73536   -6.31490
       O    -2.16573   13.88405   -7.26344
      H1    -1.20649   14.06102   -7.19279
       H     1.59732   12.22324   -2.35534
       O     0.80999   12.78092   -2.55648
      H1     0.07444   12.23783   -2.22331
       H    -3.92320   13.79826   -4.13080
       O    -3.30530   14.16054   -4.80928
      H1    -2.74407   14.77863   -4.31208
       H    -7.21116    8.12290   -1.46859
       O    -6.26853    8.42436   -1.71581
      H1    -5.77569    7.62085   -1.92481
       H    -3.92033   12.73893   -9.54951
       O    -3.62661   12.20022   -8.79397
      H1    -3.09060   12.86423   -8.28793
       H    -2.53151    3.21272   -3.83891
       O    -2.13025    3.94870   -4.30194
      H1    -1.85533    4.63776   -3.66050
       H     0.42125    9.64604   -3.09196
       O    -0.51715    9.35591   -3.16494
      H1    -1.01870   10.19667   -2.99430
       H    -7.20370    9.77573   -2.89961
       O    -7.74709   10.17867   -3.63843
      H1    -7.57369    9.70460   -4.51231

