171
frame 7 | Written by MDAnalysis XYZWriter (release 2.4.3)
       H   -16.23299   12.56771   19.13993
       O   -16.00763   11.84674   18.56842
      H1   -15.52539   11.18171   19.09093
       H   -16.93803    4.26663   18.47505
       O   -16.03291    4.32283   18.33926
      H1   -15.82538    5.25515   18.57064
       H   -10.68777    6.29160   13.55947
       O   -10.99801    6.35731   14.52738
      H1   -11.52728    7.15047   14.57481
       H   -16.18618   12.45361   11.24917
       O   -16.50719   11.51447   11.22302
      H1   -17.24279   11.58375   11.86539
       H    -7.80518   13.46504   14.57156
       O    -8.19200   13.22764   15.46723
      H1    -8.83297   13.81444   15.86859
       H    -9.71993   10.86842   13.83395
       O   -10.09103   11.37879   14.53100
      H1    -9.36296   11.90431   14.89653
       H   -11.90982   13.81587   15.40987
       O   -12.29152   13.10345   14.89063
      H1   -11.52529   12.46948   14.71070
       H   -10.61671   19.88136   18.15301
       O   -10.86571   18.94602   17.96527
      H1   -10.35603   18.63987   17.18035
       H   -11.46125   15.90395   18.88152
       O   -12.04742   15.26670   18.39995
      H1   -12.73570   15.81359   17.98866
       H   -14.36035   11.70495   17.06049
       O   -13.93537   11.28380   16.29712
      H1   -13.28159   11.82969   15.85460
       H   -15.51834    7.98172   10.33192
       O   -15.21524    8.92151   10.17748
      H1   -15.80171    9.54669   10.59919
       H   -15.32274   14.32728   16.90660
       O   -15.48127   14.50095   15.93237
      H1   -15.80049   15.42898   15.94667
       H   -18.68246    5.69052   15.05781
       O   -17.95900    5.23376   15.60693
      H1   -17.81366    4.45358   15.09902
       H   -10.29248   16.05672   12.17613
       O    -9.95232   15.23253   11.85092
      H1   -10.45112   14.87365   11.09466
       H   -12.99775   16.22157    9.86176
       O   -13.64845   16.93849    9.86524
      H1   -13.78890   17.11268   10.83844
       H    -7.91011   16.63723   19.25644
       O    -7.00805   16.98539   19.17782
      H1    -6.99460   17.27072   18.22566
       H   -19.14757   18.37516   17.07397
       O   -18.56392   18.55765   16.30026
      H1   -18.70791   17.79521   15.67891
       H   -13.34206   18.13204   17.54487
       O   -13.15272   17.63485   16.74592
      H1   -12.34764   17.87508   16.25041
       H   -16.59418    6.22414   15.51418
       O   -15.74924    6.63109   15.51960
      H1   -15.28844    6.32610   14.69350
       H   -16.54409   17.69367   16.28504
       O   -15.86209   17.05380   16.24260
      H1   -14.93880   17.43559   16.38242
       H   -11.42582    9.83619   17.44009
       O   -12.28176    9.93674   17.82645
      H1   -12.76988   10.28203   17.07652
       H   -14.13347    9.68106   18.64188
       O   -14.46570    9.83287   19.55149
      H1   -15.11582    9.16648   19.67064
       H   -14.97735    9.95982   15.91702
       O   -15.80831    9.38505   15.92828
      H1   -15.51920    8.48365   15.82312
       H   -13.50377   14.73274   13.35630
       O   -14.13896   15.43934   13.61639
      H1   -14.42083   15.25518   14.50983
       H   -13.61595    9.05147   14.40519
       O   -13.19546    8.20067   14.63325
      H1   -13.29715    8.05669   15.57891
       H   -17.12058   10.27396   14.98825
       O   -17.93941   10.74451   14.71031
      H1   -18.26884   11.11283   15.57005
       H   -14.25971   11.58787   13.92287
       O   -14.53317   10.79210   13.43775
      H1   -15.01537   11.16587   12.73609
       H    -7.68551   11.38849   17.47492
       O    -8.42947   11.37344   18.17508
      H1    -7.97172   11.04698   18.90086
       H   -17.22365   13.51909   13.32456
       O   -18.09418   13.19640   13.52884
      H1   -17.96815   12.39761   14.09998
       H   -13.95675   16.90930   12.94438
       O   -14.01111   17.77536   12.55448
      H1   -13.31611   18.23833   13.02203
       H   -10.24171   15.59523   15.98088
       O   -10.59778   14.72067   16.25488
      H1   -11.07243   14.88072   17.09485
       H   -12.29356   13.48323   12.44534
       O   -12.80491   13.81389   11.68852
      H1   -13.10792   13.03200   11.20327
       H   -15.45409   16.38642   17.98500
       O   -15.07154   16.00179   18.79403
      H1   -15.20795   16.65870   19.54779
       H    -8.75274   17.30753   16.06693
       O    -9.70420   17.53129   15.90753
      H1    -9.84349   17.44741   14.96057
       H   -14.25076    6.67767   16.67575
       O   -13.73324    7.09241   17.36687
      H1   -13.04700    6.45867   17.61727
       H   -12.49415   11.90088   19.03064
       O   -13.10703   12.67701   19.01881
      H1   -12.54832   13.36266   18.63949
       H    -9.98697    7.31183   17.08458
       O    -9.40725    6.56197   16.80255
      H1    -9.82583    6.31785   15.95429
       H    -9.92282   10.25053   15.82637
       O    -9.91151    9.80279   16.67806
      H1    -9.44229   10.38732   17.29122
       H   -10.10362   17.04452   20.24704
       O    -9.95226   16.84752   19.30651
      H1   -10.20705   17.67892   18.84322
       H    -6.83939   14.75774   17.48223
       O    -5.97898   14.37702   17.29799
      H1    -5.76145   14.68877   16.40467
       H   -18.93862   15.66949   17.72517
       O   -18.19539   15.96813   18.32913
      H1   -18.19865   16.89337   18.26016
       H   -20.11622    8.86983   13.29013
       O   -19.67837    9.65731   12.96907
      H1   -18.95538    9.75243   13.55747
       H   -19.11020   13.17985    9.39733
       O   -18.97474   12.94555    8.44629
      H1   -18.97514   13.75880    7.96557
       H   -15.61956   18.67814   13.54330
       O   -16.45135   19.18147   13.63542
      H1   -16.19942   20.08776   13.32541
       H   -19.60788    6.88743   11.27821
       O   -18.83257    7.44802   11.30256
      H1   -18.97738    8.11005   12.07428
       H    -9.81775   18.18520   12.63783
       O   -10.45358   17.69507   13.25612
      H1   -10.97852   18.45761   13.53118
       H   -15.45249   14.68709   12.50745
       O   -16.19354   14.23818   12.06195
      H1   -16.64737   15.01237   11.57789
       H   -17.96438   15.54586   14.83477
       O   -18.60709   16.21100   14.54532
      H1   -18.37839   16.47788   13.57179
       H   -17.57758   11.24575   17.72496
       O   -18.49491   11.22081   17.41050
      H1   -18.92798   11.95684   17.89999
       H   -13.89495    8.72998   11.48641
       O   -13.01163    8.47429   11.70085
      H1   -13.04492    8.08813   12.59411
       H   -16.22645   14.75300   19.51735
       O   -16.85133   14.08961   19.75758
      H1   -17.65354   14.39592   19.27500
       H   -15.01657    6.95989   18.67512
       O   -15.71360    6.91934   19.36125
      H1   -15.31746    6.71154   20.21305
       H   -16.09622   14.87130    8.77713
       O   -15.98409   15.82401    8.85738
      H1   -15.18350   16.03595    9.40304
       H   -11.50861    4.44105   18.34761
       O   -12.23135    4.85458   18.78234
      H1   -11.87780    5.11125   19.63245
       H   -17.84022   17.32203   11.04105
       O   -17.66270   17.10841   11.98156
      H1   -17.21702   17.83595   12.43560
       H   -19.01438    5.39102   19.12266
       O   -18.88330    4.82969   18.31813
      H1   -18.66214    5.36893   17.53112
       H   -19.11043   13.50297   12.12170
       O   -19.62707   13.34411   11.30209
      H1   -19.93650   12.42020   11.24047

