171
frame 7 | Written by MDAnalysis XYZWriter (release 2.4.3)
       H    -8.41930   19.35480   -7.17143
       O    -8.38327   19.22475   -6.19233
      H1    -9.29557   19.13121   -5.85659
       H    -0.86259   16.45909   -3.19914
       O    -1.32911   16.24444   -2.38640
      H1    -1.57683   17.13010   -2.04084
       H    -3.91815   13.89110  -11.16148
       O    -4.26448   13.02800  -10.93636
      H1    -4.27188   12.48382  -11.70987
       H     1.82733   15.48376   -1.90888
       O     1.04413   15.00066   -1.63025
      H1     0.25385   15.48403   -1.91303
       H    -3.28141   16.26665  -12.83324
       O    -3.48388   17.01212  -13.40623
      H1    -3.00464   16.83424  -14.25593
       H     3.38550   12.31990   -6.65490
       O     3.93761   13.01212   -6.97980
      H1     3.49251   13.89289   -6.85976
       H     3.79725   18.81622   -4.09209
       O     3.45079   18.64310   -3.15427
      H1     2.57747   19.04880   -3.13679
       H    -0.48519    8.98383   -4.88695
       O    -0.76746    8.72641   -5.78435
      H1    -0.62553    9.44525   -6.38807
       H    -4.08391    9.48425   -3.29966
       O    -3.77052   10.09713   -2.63047
      H1    -4.37152   10.04602   -1.88250
       H    -7.50720   11.62280   -4.03332
       O    -7.23469   12.55795   -4.17308
      H1    -7.04745   12.62012   -5.12346
       H    -0.88863   18.28687  -10.56860
       O    -0.66324   18.42478   -9.63771
      H1    -1.41590   18.83731   -9.22713
       H    -0.11756   16.41063   -5.63581
       O    -0.67133   16.79596   -4.97150
      H1    -0.70155   17.75457   -5.15385
       H    -5.20331   18.89417   -2.38091
       O    -5.85225   19.58805   -2.07828
      H1    -5.81051   20.40674   -2.58412
       H   -10.38542   15.13613   -4.07842
       O   -10.59022   16.05711   -4.15758
      H1    -9.78342   16.47824   -3.93010
       H    -5.80844   14.24093  -10.43315
       O    -6.61292   14.74236  -10.20461
      H1    -6.26140   15.63107  -10.11590
       H    -9.01476   18.74682   -8.59907
       O    -8.18278   19.18020   -8.78704
      H1    -7.50761   18.50708   -8.87929
       H    -9.74423   16.56253   -7.03074
       O   -10.42689   16.52404   -7.66734
      H1   -11.10490   17.13179   -7.33065
       H     3.24432   16.85442   -2.73225
       O     3.31395   15.97528   -2.48269
      H1     3.88747   15.87929   -1.70305
       H     1.58430   14.07640   -6.24392
       O     1.47753   14.45045   -7.12849
      H1     1.64430   13.70997   -7.73508
       H    -6.21648   10.85004   -8.97546
       O    -5.50028   11.38942   -8.43667
      H1    -5.44037   12.21994   -8.92229
       H     2.29997   10.48903   -5.01431
       O     2.08401   11.10777   -5.72368
      H1     1.16519   11.31688   -5.56422
       H    -1.29834   11.72284   -1.07221
       O    -1.43393   11.67839   -1.96997
      H1    -2.20663   11.09366   -2.13136
       H    -7.51588   17.59715   -6.20032
       O    -7.71803   16.64385   -6.01744
      H1    -7.02430   16.09125   -6.41212
       H     3.70988   16.67272   -8.05339
       O     4.05095   15.92367   -8.59407
      H1     5.00855   15.68191   -8.27478
       H    -7.23862   16.32580   -1.76242
       O    -6.76413   16.07405   -0.94933
      H1    -6.41115   15.16597   -1.20643
       H    -1.56122   11.64073  -10.50051
       O    -1.05812   11.62049  -11.35613
      H1    -1.43282   12.23591  -11.95647
       H    -3.15642   16.08283   -5.53009
       O    -3.90589   16.69009   -5.49958
      H1    -4.44427   16.54885   -4.71484
       H    -4.28603   11.77354   -3.01795
       O    -4.61094   12.69033   -3.05062
      H1    -5.56450   12.56758   -3.40709
       H    -5.66565   16.94279   -8.43331
       O    -5.95399   17.36900   -9.23172
      H1    -5.18551   17.72299   -9.55231
       H    -7.57112   13.50894   -1.11955
       O    -8.52857   13.37049   -1.16632
      H1    -8.81619   13.20194   -2.10448
       H     1.64231   13.87900    1.54864
       O     1.12550   13.64491    0.79764
      H1     1.28394   14.18181    0.01553
       H    -7.69805   16.96918   -4.15903
       O    -7.94309   17.24856   -3.26387
      H1    -7.48954   18.07500   -3.15008
       H    -1.15371   10.83397   -8.11689
       O    -0.38197   10.64815   -7.55026
      H1     0.31653   10.47225   -8.19791
       H    -6.06797   14.54355   -6.99808
       O    -5.76018   15.44687   -7.14100
      H1    -5.00456   15.73526   -6.55531
       H    -4.84909   14.08349    1.99752
       O    -4.17460   14.67897    1.63723
      H1    -4.41619   15.55795    1.92078
       H    -6.61230   10.56754   -0.31563
       O    -5.79404   10.71863   -0.71934
      H1    -5.59617   11.63062   -0.58100
       H     0.51408   18.19236    1.66554
       O     0.34101   17.90562    0.77861
      H1     0.43912   16.93922    0.77184
       H    -5.36616   19.39790   -0.26412
       O    -4.89664   18.88663    0.42645
      H1    -4.53431   19.53197    1.08298
       H    -4.30953   10.15063   -7.46546
       O    -4.04533    9.16417   -7.35719
      H1    -3.70381    9.07434   -6.48172
       H    -9.79951   13.30329   -8.29793
       O    -9.53413   13.06435   -7.41269
      H1   -10.27017   13.45887   -6.92490
       H    -1.32761   18.36167   -0.17895
       O    -2.06074   18.48059   -0.82885
      H1    -2.88053   18.36468   -0.31828
       H     1.72634   13.17754  -10.61371
       O     1.92071   13.40313   -9.69785
      H1     1.97405   14.38078   -9.75399
       H    -5.03490   13.33446   -1.50733
       O    -5.50989   13.62682   -0.64360
      H1    -4.90339   13.94212    0.00795
       H     2.02712   17.78197   -7.36501
       O     3.01447   17.91404   -7.26632
      H1     3.23254   18.77475   -7.68960
       H    -3.67478   16.80646   -2.79946
       O    -4.57704   17.08713   -2.65998
      H1    -4.86225   16.63187   -1.85761
       H    -6.12908   12.32414   -7.18228
       O    -6.65604   12.95766   -6.72711
      H1    -7.54776   13.01003   -7.12443
       H     2.21724   14.46359   -3.79106
       O     2.11782   13.87158   -4.55948
      H1     2.24489   12.96582   -4.28974
       H    -3.53415   19.71155   -5.09442
       O    -3.21400   19.28969   -5.90363
      H1    -3.43308   18.36606   -5.79332
       H    -1.94167   13.88127   -6.30404
       O    -1.58447   14.00134   -7.19406
      H1    -0.62664   13.89396   -7.18184
       H    -2.42229   14.91446  -11.82709
       O    -3.21864   15.37345  -11.40433
      H1    -2.96492   15.83038  -10.59592
       H     2.69671   12.61794   -0.94894
       O     2.21936   12.59339   -1.76747
      H1     1.50657   13.22048   -1.82134
       H    -2.73373   13.49601   -3.85306
       O    -2.10227   14.02388   -4.43548
      H1    -1.58251   14.50295   -3.81254
       H    -3.12889   12.55597   -9.59200
       O    -2.52693   12.05159   -9.02431
      H1    -2.32948   12.75456   -8.35854
       H    -2.66896   15.37839   -8.29340
       O    -2.89913   16.15513   -8.81017
      H1    -2.56991   16.90388   -8.30319
       H     0.86407    9.60017   -3.18601
       O    -0.07788    9.65632   -3.34312
      H1    -0.30224   10.46957   -2.78696
       H   -10.58339   12.91349   -3.77599
       O    -9.82187   13.53700   -3.86252
      H1    -9.04773   13.01392   -4.24363
       H     0.83356   15.86860   -7.61968
       O     0.46773   16.74180   -7.71004
      H1    -0.05950   16.73721   -8.52434

