171
frame 5 | Written by MDAnalysis XYZWriter (release 2.4.3)
       H   -11.03493  -14.06310   14.27131
       O   -11.56136  -14.58371   13.68247
      H1   -12.38783  -14.12787   13.44382
       H   -11.71505   -7.33491   17.25001
       O   -12.65941   -7.47623   17.21614
      H1   -12.96174   -7.33256   18.10431
       H   -10.82634   -9.75090   16.82036
       O   -11.52505  -10.12051   17.42112
      H1   -12.12850   -9.41274   17.59661
       H    -6.61615   -7.98745   10.45571
       O    -7.39700   -8.14809    9.89870
      H1    -7.48849   -9.08088    9.86263
       H    -5.92258  -17.50019   12.68083
       O    -5.18441  -16.89800   12.50679
      H1    -4.42201  -17.19111   13.03578
       H    -6.03615  -16.86122   17.29486
       O    -5.54872  -17.51443   16.83699
      H1    -6.10608  -17.77700   16.10835
       H   -13.62266  -11.15197   15.23419
       O   -13.23489  -11.65199   15.99253
      H1   -12.69855  -10.99978   16.52174
       H   -10.79052   -3.91735   16.59004
       O   -11.69673   -3.97926   16.93347
      H1   -12.11497   -3.98818   16.07639
       H   -11.55012  -14.56385   17.67405
       O   -10.84926  -13.94427   17.89730
      H1   -11.17617  -13.46307   18.69337
       H    -9.34836   -8.43260   16.34054
       O    -9.49584   -9.25619   15.90242
      H1    -9.54377   -9.16473   14.97539
       H    -9.38316   -5.21383   19.14006
       O   -10.25511   -4.79076   19.19857
      H1   -10.66591   -5.31796   18.53035
       H    -8.38747  -14.08805   15.93685
       O    -8.47618  -15.01859   16.01588
      H1    -7.91662  -15.26316   15.24204
       H   -14.85929  -12.32025   16.93439
       O   -15.69139  -12.80582   17.01345
      H1   -15.57254  -13.63097   16.49461
       H    -8.02510  -11.10429   10.24764
       O    -7.10069  -11.24414    9.92526
      H1    -7.15563  -11.34565    8.97612
       H    -8.69648  -12.58986   12.06627
       O    -7.96536  -13.11891   12.25317
      H1    -7.44071  -13.10056   11.41029
       H   -10.29327  -10.91038   10.70237
       O    -9.99710  -11.51967   11.40100
      H1   -10.47015  -12.40258   11.22369
       H    -4.48675   -5.78453   13.94183
       O    -4.65948   -5.31225   13.12064
      H1    -4.77853   -6.01170   12.46154
       H    -7.16474  -14.37142   12.89475
       O    -6.78344  -15.12220   13.50114
      H1    -6.21391  -15.71286   13.02065
       H    -7.61105   -4.14737   12.55608
       O    -7.50279   -4.32844   13.50019
      H1    -6.58530   -4.57177   13.69458
       H    -3.14265  -15.50973   15.61886
       O    -3.11104  -16.29266   16.13026
      H1    -3.98229  -16.54948   16.43060
       H   -11.45860  -11.91923   15.13833
       O   -10.78291  -11.97282   14.48104
      H1   -11.02370  -11.32771   13.86575
       H    -2.13272   -9.36832   12.83215
       O    -1.42445   -9.79744   12.33303
      H1    -1.94365   -9.84279   11.45241
       H    -6.99617   -8.35777   14.97808
       O    -7.11207   -7.45910   14.67991
      H1    -7.58665   -7.51929   13.82074
       H    -2.60599  -11.08411   15.48512
       O    -3.55572  -11.19475   15.33208
      H1    -3.70034  -10.82282   14.45974
       H    -5.27146  -13.29069   17.11678
       O    -4.95874  -12.41263   17.25999
      H1    -4.35596  -12.26820   16.50944
       H    -2.37581   -8.16789   16.55455
       O    -2.41957   -8.83218   17.22962
      H1    -1.64431   -8.63627   17.82754
       H    -4.56462   -8.01437   11.49164
       O    -5.05150   -7.36840   11.08637
      H1    -4.52706   -7.29829   10.26880
       H    -0.54712  -11.44350   17.19356
       O    -1.07571  -11.03245   16.51358
      H1    -1.49452  -10.22064   16.79521
       H    -6.44315   -8.47891   17.82045
       O    -6.50866   -8.92015   18.68956
      H1    -6.99702   -9.80416   18.62222
       H    -8.67155  -17.48340   16.86784
       O    -8.98091  -18.30117   16.50516
      H1    -8.56801  -18.43659   15.64070
       H    -3.94025  -13.67649   11.90790
       O    -4.38273  -13.62669   12.77885
      H1    -5.11183  -14.25106   12.75548
       H   -14.71814  -13.91562   12.61302
       O   -14.17931  -13.66281   13.34705
      H1   -14.59077  -14.06803   14.11082
       H    -1.71152   -5.62357   15.58405
       O    -1.75177   -6.52380   15.20258
      H1    -1.50900   -6.52282   14.31244
       H   -13.49803  -10.94107   11.08996
       O   -12.84105  -10.57098   10.53306
      H1   -13.15838   -9.70655   10.20735
       H    -0.92150  -11.11615   13.47091
       O    -0.65893  -11.92036   13.96043
      H1    -0.87467  -11.64469   14.88930
       H    -5.44300  -11.72234   12.98248
       O    -5.62140  -10.76925   12.99195
      H1    -6.00343  -10.59622   13.90587
       H    -9.51200  -12.01000   15.77700
       O    -8.99875  -12.30747   16.59700
      H1    -9.61920  -12.81998   17.12824
       H   -11.04322  -16.14195   14.89734
       O   -11.28131  -16.76705   15.61950
      H1   -10.65847  -17.38797   15.77552
       H    -7.93546   -6.99820   11.39116
       O    -8.43321   -6.93455   12.28511
      H1    -8.21468   -6.10709   12.71153
       H    -3.12036  -14.63371   13.17872
       O    -2.30400  -15.12508   13.14286
      H1    -2.36179  -15.43593   12.23226
       H    -6.11029  -10.93666   16.25002
       O    -6.62057  -10.28520   15.80371
      H1    -7.53926  -10.40955   16.06219
       H   -15.35511   -7.78281   17.92342
       O   -15.67974   -8.55002   17.45034
      H1   -15.11735   -8.79234   16.71197
       H   -13.68616   -6.19348   16.69231
       O   -14.14900   -5.52270   16.19827
      H1   -15.00748   -5.90321   16.13068
       H    -8.92552  -16.37609   20.14036
       O    -9.18680  -16.73523   19.27020
      H1    -9.74178  -16.11051   18.80522
       H   -10.39996  -14.57104   10.29846
       O   -10.87703  -13.98466   10.89132
      H1   -10.86737  -14.43009   11.73657
       H    -4.38396   -9.26604   13.96137
       O    -3.74246   -8.61637   13.70110
      H1    -3.79966   -7.92303   14.39030
       H    -8.52615   -2.45384   17.09395
       O    -9.16618   -2.84114   16.41458
      H1    -9.14724   -2.17978   15.73272
       H   -10.96947   -5.93795   11.79310
       O   -11.68337   -5.53416   11.35002
      H1   -12.32915   -5.46180   12.04164
       H    -9.54817   -8.49201   12.72439
       O    -9.91974   -9.24085   13.17451
      H1    -9.92681   -9.96550   12.50917
       H    -8.52094   -4.60575   16.38648
       O    -7.91972   -5.36467   16.55001
      H1    -7.58262   -5.54218   15.65818
       H    -9.94752   -7.33370   18.42225
       O    -9.96809   -7.14325   17.49288
      H1    -9.14891   -6.64595   17.28123
       H    -6.12238  -14.02477   18.91794
       O    -6.17150  -14.65929   18.14994
      H1    -7.14974  -14.81423   18.20084
       H    -4.47745   -5.89696   18.93959
       O    -4.92210   -5.58667   18.18518
      H1    -4.84484   -4.61721   18.08855
       H    -4.75012  -10.58483   11.04273
       O    -3.90832  -10.45888   10.64321
      H1    -3.99641   -9.66290   10.07328
       H    -5.64222   -6.70888   15.35386
       O    -4.66981   -6.56427   15.58672
      H1    -4.73182   -6.27157   16.49121
       H    -7.91188  -11.78877   18.12825
       O    -7.68432  -11.46127   19.04528
      H1    -6.96037  -12.04601   19.25764
       H   -14.26749  -10.19697   13.57000
       O   -14.09780   -9.71679   14.40735
      H1   -13.77197   -8.86536   14.02437

