171
frame 0 | Written by MDAnalysis XYZWriter (release 2.4.3)
       H    17.05871  -10.89082   -4.45374
       O    16.69418  -11.13986   -5.30405
      H1    16.06413  -10.42417   -5.46965
       H    19.10109  -17.19724   -6.99434
       O    18.51737  -16.93226   -7.68031
      H1    17.67938  -17.19201   -7.33015
       H    16.76045  -13.29272    0.34563
       O    16.02817  -12.79039   -0.06306
      H1    15.96638  -13.04896   -1.02265
       H    18.99327   -9.13013   -8.82051
       O    18.18112   -9.44669   -8.41009
      H1    17.78514   -8.76245   -7.81428
       H    12.54887  -14.13271   -2.11010
       O    12.81367  -14.49067   -2.99443
      H1    13.21526  -15.35486   -2.92358
       H    10.82119  -16.67791  -14.31199
       O    10.99496  -17.49335  -13.92513
      H1    10.93709  -17.31098  -12.95972
       H    15.93054  -14.05180  -15.60417
       O    15.97551  -13.16268  -15.97501
      H1    16.79375  -12.75110  -15.65961
       H    13.83715  -11.84451   -4.77463
       O    14.16928  -12.66728   -4.39369
      H1    13.42583  -13.23309   -4.28840
       H     8.26187  -17.03461   -9.03375
       O     8.86937  -16.35846   -9.33942
      H1     8.63078  -15.95752  -10.19720
       H    16.78802  -16.11478   -5.67797
       O    17.03866  -16.96603   -5.28008
      H1    16.34927  -17.54731   -5.58216
       H    14.37968  -15.90484  -15.10436
       O    15.03628  -15.38293  -14.61930
      H1    15.57895  -16.09137  -14.14820
       H    18.87331  -12.56222  -15.18552
       O    19.14648  -13.40414  -14.78883
      H1    19.98701  -13.17748  -14.39509
       H    13.78893  -18.00643   -2.68889
       O    13.86092  -17.20409   -2.18009
      H1    13.20333  -17.22459   -1.45392
       H    12.15145  -12.85995   -8.98030
       O    11.36954  -13.04559   -8.44753
      H1    11.24680  -14.00128   -8.40814
       H    13.49716  -13.02051  -10.92404
       O    13.28041  -12.21569  -10.43901
      H1    14.13395  -11.71955  -10.40793
       H    18.15840  -19.88273   -5.35703
       O    19.05110  -19.85221   -4.98911
      H1    19.17422  -18.86958   -4.81869
       H    10.04795  -10.56172   -7.54372
       O    10.62511   -9.78135   -7.49018
      H1    11.42834   -9.92666   -8.00907
       H    13.06298  -19.31008   -8.90128
       O    13.82885  -19.44828   -9.49657
      H1    13.96303  -18.52149   -9.86887
       H    14.05289  -14.37232  -12.56731
       O    13.87622  -14.55376  -11.61490
      H1    14.71714  -14.39422  -11.16986
       H    10.79575  -19.70563   -8.29784
       O    11.61491  -19.26707   -7.94067
      H1    11.36778  -18.40881   -8.25131
       H    11.57216  -18.01457   -5.77672
       O    12.10484  -17.80435   -5.05461
      H1    12.85748  -17.30142   -5.51909
       H    13.02004  -19.59592  -11.36478
       O    12.24928  -19.58884  -11.96439
      H1    12.71015  -19.55667  -12.81347
       H     7.87174  -11.38705   -8.04243
       O     8.71828  -11.65966   -7.57299
      H1     9.12670  -12.18711   -8.24249
       H    13.41272  -15.33118   -6.24156
       O    14.16347  -15.88573   -6.49196
      H1    14.18966  -15.86674   -7.44381
       H    16.19333  -14.60045   -2.55941
       O    16.18573  -13.62599   -2.56235
      H1    15.41925  -13.36497   -3.08516
       H    12.27238  -10.03876   -6.03303
       O    12.98552  -10.15759   -5.37848
      H1    12.82779   -9.60710   -4.59702
       H    13.56973   -9.46219   -9.22252
       O    13.09262   -9.01739   -8.48372
      H1    13.82465   -8.69921   -7.88402
       H    15.61428  -14.60631   -6.02132
       O    16.25572  -13.89807   -6.24171
      H1    16.12790  -13.22240   -5.57397
       H    13.77837   -8.89128   -5.98910
       O    14.45464   -8.23692   -6.30112
      H1    14.16316   -7.33172   -6.05476
       H    11.85471  -16.05594   -9.76566
       O    11.42028  -16.10707   -8.91964
      H1    10.45366  -16.22642   -9.13751
       H    18.62989  -12.56948   -9.13238
       O    18.88416  -12.91707   -9.97920
      H1    19.48749  -13.71574   -9.83331
       H    16.29887  -15.29322   -9.33603
       O    15.48876  -14.79247   -9.23175
      H1    15.67628  -14.12463   -8.53115
       H    11.90835  -13.99992   -4.67135
       O    11.80089  -14.08877   -5.66528
      H1    11.65455  -13.18978   -5.90883
       H    11.86905  -11.51648  -11.27844
       O    11.14342  -10.96731  -11.54873
      H1    11.48241  -10.34723  -12.19931
       H    14.81138  -10.03885  -14.88958
       O    14.76048  -10.35942  -13.95997
      H1    14.39339  -11.22631  -14.12549
       H    18.27557  -13.58550   -5.87236
       O    19.12471  -14.02749   -5.80936
      H1    19.13527  -14.70186   -6.50156
       H    12.64926  -12.63083  -14.78351
       O    13.56846  -12.63968  -14.33514
      H1    14.16596  -12.93399  -15.03470
       H    19.19742  -17.58950   -9.42164
       O    19.48207  -17.53820  -10.34660
      H1    19.98781  -16.71470  -10.31314
       H    17.01189   -7.24925   -9.61022
       O    16.20007   -7.72506   -9.86602
      H1    16.48906   -8.62047  -10.03125
       H    19.18025  -13.54629   -4.05488
       O    18.99121  -12.91983   -3.28238
      H1    18.06928  -13.09789   -3.01723
       H    12.77502   -8.53348  -12.36763
       O    12.39865   -8.96832  -13.15315
      H1    13.24732   -9.34747  -13.50183
       H    20.33132   -9.52585  -11.60415
       O    19.49437   -9.24049  -12.03696
      H1    18.81915   -9.90480  -11.79035
       H    18.48315  -10.91338   -7.87801
       O    18.59004  -11.79589   -7.36865
      H1    17.95982  -11.67474   -6.68212
       H    14.47422   -7.43519  -10.88812
       O    13.57105   -7.34827  -11.30328
      H1    12.91982   -7.01504  -10.58191
       H    15.66168  -10.86845   -8.92781
       O    15.35102  -10.63435   -9.83934
      H1    16.11379  -10.69312  -10.41480
       H    12.10209  -15.36974  -11.95885
       O    11.18516  -15.56529  -11.68096
      H1    10.66383  -15.43692  -12.47369
       H     9.39436  -13.95931  -12.08673
       O     9.23102  -13.01973  -12.30052
      H1    10.05318  -12.55873  -12.10796
       H    16.46708   -7.68457   -6.46959
       O    17.40026   -7.69770   -6.36220
      H1    17.63735   -7.72773   -5.40660
       H    17.95876  -13.58326  -11.73985
       O    17.60719  -13.14112  -12.52285
      H1    17.99235  -13.56284  -13.27517
       H    16.13353  -18.34512  -12.36648
       O    15.33419  -18.01806  -12.84403
      H1    15.40105  -18.49839  -13.67054
       H    17.04113  -16.58481   -3.59477
       O    16.72783  -16.48804   -2.67892
      H1    15.84185  -16.90759   -2.64172
       H     8.68861  -14.71714   -6.96534
       O     8.97355  -14.89076   -6.11193
      H1     9.90951  -15.00268   -6.17374
       H    12.64965  -11.99803   -2.68089
       O    11.79578  -11.59370   -2.26651
      H1    11.52302  -12.42884   -1.82837
       H    18.97692  -10.96322   -3.45110
       O    18.21919  -10.33482   -3.31191
      H1    17.99881  -10.60919   -2.43468
       H    17.09068  -11.48050  -12.17620
       O    16.93369  -10.52491  -11.96175
      H1    16.19263  -10.38202  -12.58815
       H    18.22412  -18.53589  -10.91188
       O    17.47689  -19.02096  -11.28162
      H1    17.02162  -19.34199  -10.49490
       H    14.42892  -16.17651  -10.11540
       O    13.98888  -16.98762  -10.44071
      H1    14.09951  -17.01438  -11.35052

