171
frame 2 | Written by MDAnalysis XYZWriter (release 2.4.3)
       H    18.38982   17.05863  -16.77309
       O    19.27433   17.09921  -17.16143
      H1    19.14507   17.58764  -17.96524
       H    16.01230    8.38782   -7.00148
       O    15.98260    9.30293   -7.34758
      H1    15.33205    9.76127   -6.81579
       H    10.96925   10.29489  -15.54337
       O    11.33604   11.16822  -15.16930
      H1    12.23363   10.85467  -14.79572
       H    15.57953   14.24869  -16.40012
       O    15.35083   14.10672  -15.47454
      H1    14.85608   13.26799  -15.38506
       H    19.09677    5.07525  -10.23061
       O    18.54131    5.87992  -10.14537
      H1    17.86204    5.62854   -9.54908
       H    17.79852   13.65254   -6.97219
       O    17.19034   14.07917   -6.35164
      H1    16.47156   13.38979   -6.27210
       H    17.94986   16.87291   -7.75270
       O    17.03145   16.62061   -7.73076
      H1    17.15570   15.82828   -7.19203
       H    16.68539   16.65768  -12.54143
       O    16.92103   16.94181  -11.62028
      H1    16.56745   16.31043  -10.96930
       H    13.25572   12.80761  -11.20611
       O    13.75487   13.11679  -11.97785
      H1    13.43393   14.03857  -12.03807
       H    15.78611   12.51353  -11.70385
       O    16.66589   12.26056  -11.42527
      H1    16.86557   12.87868  -10.70674
       H    14.70298   10.24145   -9.44981
       O    14.70960    9.42948   -9.98573
      H1    14.15504    8.85809   -9.44875
       H    13.36327   12.36100   -9.42122
       O    14.07161   12.19275   -8.83098
      H1    14.78235   12.78167   -9.09516
       H    16.96803   16.42045  -15.61011
       O    16.72865   17.07299  -16.35249
      H1    15.83065   17.34608  -16.28730
       H    19.17945   15.51192  -17.78090
       O    19.08768   14.74192  -18.34986
      H1    19.63612   14.05356  -17.90838
       H    12.58830   16.17075   -9.30041
       O    13.01377   16.66642   -9.99235
      H1    12.46721   16.36954  -10.78414
       H    12.73921    7.50759  -15.86470
       O    12.97736    8.39205  -16.15520
      H1    12.65444    8.39434  -17.08998
       H    19.36317   10.47573   -8.65027
       O    19.80533    9.82485   -9.20918
      H1    19.18286    9.27517   -9.75657
       H    11.91181   10.78230  -10.97252
       O    11.92383   11.56619  -10.34027
      H1    11.61248   11.08481   -9.48552
       H    17.38427   13.28181  -15.56722
       O    18.33700   13.46642  -15.43561
      H1    18.80765   13.09790  -16.20322
       H    17.25509    7.96489  -15.17815
       O    17.99269    8.10982  -15.82241
      H1    18.00883    7.28026  -16.34528
       H    15.79152   18.31642  -11.10204
       O    15.30036   19.10756  -10.83182
      H1    14.39694   18.75993  -10.91751
       H    18.34527   19.98815  -10.81990
       O    18.79607   19.32616  -11.28951
      H1    18.15567   18.59252  -11.30077
       H    16.82456   11.23342  -17.42080
       O    16.03818   11.75855  -17.71527
      H1    16.24091   12.71465  -17.74755
       H    12.44156    8.95387  -11.79363
       O    11.54373    9.36837  -11.90401
      H1    10.96787    9.07148  -11.19778
       H    18.65303   11.35344   -6.50163
       O    18.18587   11.21300   -7.33072
      H1    17.54983   10.49874   -7.18739
       H    14.43503    9.39781  -15.94579
       O    15.11538   10.04816  -15.89831
      H1    15.22233   10.58492  -16.72148
       H    18.42469    9.35528  -17.01491
       O    18.32894   10.18574  -17.52871
      H1    19.19020   10.33888  -17.89518
       H    15.09754    8.71248  -19.36450
       O    14.87677    7.79787  -19.34233
      H1    15.71714    7.26672  -19.51213
       H    15.57977   19.38400  -13.00786
       O    15.40958   19.62436  -13.91172
      H1    16.32782   19.60796  -14.34783
       H    14.30805   11.20868  -14.76645
       O    13.78651   12.03655  -14.48718
      H1    13.86050   12.11969  -13.49585
       H    15.46163   18.87552   -9.02461
       O    15.67907   18.96390   -8.07834
      H1    16.25814   18.17341   -7.97887
       H    14.11954   15.03656  -14.50203
       O    13.37263   15.56956  -14.15517
      H1    12.79718   15.59827  -14.96836
       H    18.10544   12.47927   -8.43832
       O    17.84979   13.09028   -9.11423
      H1    18.62153   13.51680   -9.46155
       H    14.83859    5.40084  -17.56880
       O    14.74093    6.26435  -17.07604
      H1    14.73178    7.03237  -17.71464
       H    17.63725    3.03592  -11.62343
       O    16.88356    3.13537  -11.01645
      H1    16.36386    3.84664  -11.46644
       H    17.34516   18.80134  -16.16926
       O    17.57152   19.48501  -15.55580
      H1    18.40229   19.20291  -15.12350
       H    14.04314    7.32493  -11.41808
       O    14.27727    7.85239  -12.19848
      H1    14.82393    8.55992  -11.77656
       H    14.50220   15.50351   -9.82108
       O    15.36778   15.13512   -9.73422
      H1    15.66740   15.48325   -8.89361
       H    16.82919    5.12039  -14.22861
       O    17.17550    4.31508  -14.63551
      H1    16.35400    3.73903  -14.69064
       H    19.26751   15.33217  -11.29972
       O    19.57948   15.02357  -10.42051
      H1    19.14419   15.62829   -9.80186
       H    17.62489    6.28995  -18.78819
       O    17.17377    6.32614  -19.70527
      H1    17.77369    6.92479  -20.13344
       H    16.16009    8.72137  -10.21861
       O    16.92592    8.30321  -10.60853
      H1    16.90611    8.18685  -11.55858
       H    15.01935   11.80811   -5.47720
       O    14.94328   12.53918   -6.10187
      H1    14.59970   12.16499   -6.94745
       H    18.35909    6.92286   -6.69011
       O    17.68071    6.88823   -5.98834
      H1    18.09262    7.15144   -5.16904
       H    19.08546   16.07635  -13.86654
       O    18.26989   15.97044  -14.40064
      H1    18.35970   15.05449  -14.79343
       H    17.66499    5.45059  -16.27297
       O    18.21710    5.71068  -17.04484
      H1    19.12214    5.91092  -16.75105
       H    15.38649    6.98430  -15.60930
       O    15.69515    7.11689  -14.68340
      H1    15.11327    7.65820  -14.15181
       H    10.80053   16.46763  -12.10763
       O    11.45353   15.77502  -12.13036
      H1    11.87938   15.68477  -12.97121
       H    19.79245   11.73222  -12.01500
       O    19.31498   11.80301  -12.81202
      H1    18.41292   11.89639  -12.58411
       H    14.76162   18.49490  -15.18138
       O    14.33417   17.93575  -15.88001
      H1    14.13735   17.10299  -15.36737
       H    11.07198   13.27136  -17.21740
       O    11.95827   13.24824  -16.82282
      H1    11.95691   12.64415  -16.11823
       H    15.45241    6.06860  -12.19781
       O    15.27990    5.23568  -11.70998
      H1    14.38353    5.02338  -11.97958
       H    19.75674    8.16756   -8.32896
       O    19.74001    7.25643   -8.01430
      H1    19.30510    6.68250   -8.66477
       H    19.15866    8.51744  -14.57451
       O    19.90447    8.80156  -13.99389
      H1    19.79688    9.69110  -13.58217
       H    16.63182   10.51461  -12.97771
       O    16.56632    9.65094  -13.41325
      H1    16.18669    9.70086  -14.29790
       H    16.06987    6.94101   -8.91288
       O    15.25626    6.55269   -8.58561
      H1    15.27804    5.69086   -8.88661
       H    15.94575   15.28043  -18.26639
       O    16.35139   14.44733  -17.94055
      H1    17.31182   14.51604  -18.08530

