171
frame 2 | Written by MDAnalysis XYZWriter (release 2.4.3)
       H     9.39968   15.69055    2.18161
       O     8.55900   16.11765    2.51880
      H1     7.91701   15.38233    2.56953
       H     6.82484   14.50191   -2.65738
       O     6.30748   13.79094   -2.97318
      H1     6.94398   13.38169   -3.56885
       H     2.06689   19.68145    0.51946
       O     2.07867   18.69679    0.60120
      H1     1.23070   18.44842    0.17278
       H    13.71197   15.24503    2.42882
       O    14.10252   14.42836    2.01061
      H1    14.57118   13.95585    2.71242
       H    12.23995   19.92612   -6.65034
       O    12.93325   19.22967   -6.85315
      H1    12.32027   18.45798   -6.99426
       H     7.08584   13.66042   -6.37832
       O     7.69384   13.31681   -5.65111
      H1     7.54926   12.35808   -5.58664
       H    11.66823   18.43066    0.99348
       O    12.37979   18.59330    1.64411
      H1    11.99877   19.05506    2.41214
       H    14.83165   18.58731   -2.77462
       O    14.27050   18.85135   -3.53611
      H1    13.97311   18.05554   -3.97224
       H     3.38587   19.65159    4.96630
       O     3.29298   18.71857    4.71040
      H1     4.06871   18.48583    4.20092
       H    10.90820   16.42300   -5.58842
       O    11.44213   16.01985   -6.26661
      H1    11.60521   15.12769   -5.93804
       H     7.44637   19.87296    8.73548
       O     6.78462   19.85451    8.05744
      H1     6.05790   19.29096    8.31884
       H    13.34130   17.30500    2.90729
       O    13.11828   16.57965    3.45115
      H1    13.81756   16.60515    4.18932
       H    15.19270   18.28399   -0.29976
       O    15.98219   18.74476   -0.61914
      H1    16.61316   18.04851   -0.91540
       H     5.84607   16.51888   -2.33139
       O     6.76767   16.82300   -2.24419
      H1     6.80979   17.06236   -3.14426
       H    11.48194   18.07870   -1.96422
       O    11.66520   18.71497   -2.65363
      H1    12.64495   18.64874   -2.80129
       H     2.55677   16.54325   -1.08046
       O     2.57339   16.75199   -1.99661
      H1     2.41974   17.68395   -1.99171
       H     0.31397   18.56837    4.07054
       O     0.66419   17.70635    4.07421
      H1     1.64158   17.73266    3.97457
       H     4.02943   14.51964    0.47625
       O     4.05927   15.32485   -0.09303
      H1     4.27822   16.07347    0.53614
       H    11.02718   17.93505    9.20120
       O    11.18550   18.86944    8.80016
      H1    10.30645   19.31551    8.85781
       H     7.50965   15.83181   -0.67256
       O     8.02316   15.28721   -0.05909
      H1     7.99923   15.77436    0.77192
       H     8.26169   18.63000   -7.93654
       O     8.75793   18.19554   -7.18606
      H1     8.95818   17.28435   -7.46808
       H     6.02678   18.17352   -1.65514
       O     5.71000   19.08480   -1.29434
      H1     4.96599   19.39032   -1.87479
       H    13.31646   17.33330    6.06881
       O    14.30902   17.20088    5.94063
      H1    14.76680   17.94087    5.65373
       H    14.63913   15.87199    0.87557
       O    14.65058   16.63694    0.23510
      H1    13.80089   16.58199   -0.20368
       H     9.77268   14.54669    4.70451
       O    10.40699   13.87500    4.52504
      H1    11.18291   14.01579    5.03852
       H     9.41642   19.32474    3.49262
       O     8.51115   19.27865    3.19014
      H1     7.91563   19.16794    3.92227
       H     8.23598   16.57930    8.17816
       O     7.95050   16.42673    7.26932
      H1     7.95394   15.46215    7.16275
       H    16.99555   18.79094    5.10692
       O    16.44650   18.79060    4.26265
      H1    15.72511   19.42945    4.33239
       H    13.47393   13.73232    6.01864
       O    12.59815   14.04741    6.24869
      H1    12.59816   14.39488    7.16230
       H     8.76638   16.74731    5.60255
       O     9.48732   16.38004    5.05340
      H1     9.09304   16.41479    4.12489
       H     3.74605   16.11908   -3.09381
       O     4.52350   15.93337   -3.69178
      H1     4.77223   15.04624   -3.49505
       H    12.03788   16.04250   -1.72276
       O    12.00925   16.52290   -0.89407
      H1    11.22320   16.10710   -0.42275
       H     5.39229   15.18639    2.83237
       O     6.24359   14.80369    3.16462
      H1     6.14510   14.71135    4.11064
       H    10.85343   15.58569   -3.07288
       O    11.29621   14.83717   -2.73315
      H1    10.85072   14.52783   -1.92357
       H    10.76712   13.18726   -0.01616
       O    10.09002   13.31095   -0.74910
      H1     9.48788   14.00326   -0.43291
       H     5.15475   19.86277   -6.10229
       O     4.51738   19.22050   -5.81907
      H1     3.76741   19.78979   -5.58891
       H     6.34133   19.11740    0.38593
       O     6.33368   19.28136    1.34520
      H1     7.21359   19.38477    1.70396
       H     6.08304   18.05258   -5.25383
       O     6.92283   17.82091   -4.94685
      H1     7.55417   18.03188   -5.63598
       H    10.49877   11.79317    6.92169
       O     9.82621   11.85024    6.22578
      H1     9.92932   12.66558    5.67189
       H    11.52052   17.98015    7.20431
       O    11.64172   17.98073    6.20598
      H1    11.12134   17.20855    5.89629
       H     8.99861   17.82765    1.18167
       O     9.31995   18.12746    0.32346
      H1     9.21464   19.09126    0.32743
       H     5.07397   18.21235    1.98275
       O     4.36569   17.54130    2.08198
      H1     3.54435   17.99558    1.81423
       H    14.05340   16.91515   -5.91668
       O    13.94704   16.58813   -5.01946
      H1    13.13905   16.03288   -5.10172
       H     5.25427   13.35297    5.64355
       O     5.55835   14.22095    5.86920
      H1     4.79023   14.67509    6.28335
       H     4.10825   15.01485   -5.46067
       O     3.83527   14.86350   -6.36316
      H1     4.51567   14.25301   -6.70259
       H    10.60413   17.86274   -3.76623
       O    10.04733   17.18862   -4.22809
      H1     9.12110   17.61150   -4.17409
       H    12.62193   13.03294   -1.76848
       O    13.10520   12.30741   -2.07432
      H1    13.28848   11.73403   -1.27824
       H     7.27090   12.59048    1.40304
       O     6.83025   12.37721    0.60214
      H1     7.34811   12.84275   -0.00886
       H     3.56333   14.22933   -1.56079
       O     3.39854   13.54167   -2.22854
      H1     4.16587   12.95629   -2.24789
       H    11.84046   15.61399    2.21821
       O    11.23185   15.28899    1.56608
      H1    11.39584   14.34826    1.65515
       H    12.87160   13.16429    1.25246
       O    12.02197   12.67714    1.04918
      H1    12.17211   11.82199    1.51315
       H    15.73518   19.55426   -6.35224
       O    15.83581   19.78386   -5.40559
      H1    15.12447   19.24246   -4.91034
       H    15.51765   16.11610   -4.37702
       O    16.32200   15.79564   -3.99773
      H1    16.71374   15.43199   -4.84702
       H     7.29826   18.12793    5.82052
       O     6.96500   18.94332    5.43501
      H1     7.11794   19.54270    6.17016
       H     9.63005   13.15684    3.00131
       O     8.99832   12.83655    2.35933
      H1     9.12222   11.85223    2.47135
       H    13.15309   12.94414   -5.04977
       O    12.44508   13.58728   -5.06173
      H1    12.09442   13.69884   -4.13472
       H     5.19282   12.71657    1.07288
       O     4.33944   12.86521    1.53106
      H1     3.61898   12.30669    1.20844

