171
frame 1 | Written by MDAnalysis XYZWriter (release 2.4.3)
       H    -1.38935   -9.95078   -0.50711
       O    -0.81374  -10.68791   -0.70242
      H1    -0.52623  -11.19860    0.03874
       H     0.87421   -8.02587    1.51972
       O     0.73460   -8.12478    0.57092
      H1     1.23076   -7.46918    0.07918
       H     3.15891   -5.75595   -5.84219
       O     3.41652   -4.87208   -6.23750
      H1     3.61906   -5.16733   -7.11853
       H     0.63256  -11.98115   -6.31925
       O    -0.22835  -12.33995   -6.50846
      H1    -0.66289  -12.74792   -5.70409
       H    -0.46788   -5.93637   -1.00938
       O     0.40554   -5.93705   -1.43434
      H1     0.23335   -6.72461   -2.00982
       H     0.64765   -4.86019   -2.98628
       O     0.23095   -4.19639   -3.60088
      H1     0.97305   -3.78374   -4.05130
       H    -0.00856  -16.29803    1.69115
       O     0.94914  -16.37683    1.87183
      H1     1.46401  -15.59035    1.67377
       H     3.09867  -11.01918   -5.92127
       O     2.15173  -10.90175   -5.84300
      H1     1.92146  -11.06978   -4.89721
       H    -4.12108  -17.31127   -4.18453
       O    -3.30499  -16.84121   -4.14338
      H1    -3.01561  -16.66495   -5.06612
       H     3.75945  -13.99338    1.46338
       O     3.29538  -14.74594    1.90471
      H1     3.79316  -15.59283    1.68636
       H     7.41774  -10.12732   -2.11989
       O     8.34356  -10.35023   -1.78574
      H1     8.73644  -10.84801   -2.48895
       H     5.84543  -14.00107   -5.06470
       O     5.11721  -13.41055   -5.15955
      H1     4.37483  -13.97383   -5.22241
       H     3.60882   -9.52453   -9.21674
       O     3.36849   -8.56911   -9.12364
      H1     2.95408   -8.32371   -9.98059
       H     4.86442  -10.34208    0.86000
       O     5.84760  -10.42594    0.83778
      H1     6.25026   -9.79402    1.50512
       H     2.55772  -10.51825    1.67854
       O     2.81469  -10.86260    0.78520
      H1     2.32326  -10.26006    0.27707
       H    -2.35107  -14.58626   -4.19441
       O    -1.87547  -13.76382   -4.43275
      H1    -2.48905  -13.06097   -4.65756
       H     0.67964  -12.89408   -3.87358
       O     1.34313  -12.25091   -3.66682
      H1     0.86181  -11.62456   -3.12577
       H     5.67560  -14.41160   -0.88455
       O     5.15451  -13.74267   -0.42478
      H1     4.79874  -13.15672   -1.14234
       H    -3.10679  -10.94630   -4.52954
       O    -3.03547  -11.13019   -5.45307
      H1    -2.45791  -10.44506   -5.85035
       H     5.35598  -10.53540   -6.04118
       O     4.70983  -11.02517   -6.62718
      H1     4.91334  -11.93747   -6.44236
       H     3.91559  -11.61500   -8.37625
       O     3.34192  -11.35502   -9.09190
      H1     2.41896  -11.13037   -8.70431
       H     6.89264  -15.51149   -2.52382
       O     6.22998  -15.86393   -3.21370
      H1     6.74365  -16.37587   -3.76367
       H     3.57737   -7.97795   -5.04806
       O     2.80707   -7.41492   -4.85292
      H1     2.05905   -7.69615   -5.46247
       H    -2.26630   -7.42148    0.04028
       O    -2.03320   -8.32305    0.29670
      H1    -1.11272   -8.27407    0.43371
       H     0.66647  -18.56492   -4.71454
       O     0.35145  -18.98104   -3.94914
      H1    -0.20025  -18.38962   -3.46283
       H    -4.51543  -13.98107   -6.20418
       O    -4.72407  -14.79919   -5.74320
      H1    -5.37810  -14.65449   -5.05748
       H    -5.61553  -15.20137   -0.71294
       O    -4.95465  -14.69976   -1.19857
      H1    -4.14259  -15.24292   -1.07432
       H     2.12431   -8.29318   -7.64664
       O     1.53612   -8.37955   -6.88525
      H1     1.63350   -9.30354   -6.53575
       H     2.99952   -6.98763   -1.20462
       O     2.75822   -7.58992   -1.90671
      H1     2.74637   -6.99463   -2.64343
       H    -1.39555  -14.58520   -1.57100
       O    -2.12379  -15.16907   -1.33268
      H1    -1.91636  -16.02513   -1.74006
       H    -3.05134  -17.12757   -7.39390
       O    -2.35374  -17.25182   -6.68267
      H1    -1.56254  -16.70888   -6.94304
       H    -1.57272  -11.22747    3.03491
       O    -2.37874  -11.62656    2.66814
      H1    -2.78517  -10.95494    2.11444
       H    -3.92378  -12.07630   -6.61925
       O    -4.56351  -12.55763   -7.21319
      H1    -5.22666  -11.86501   -7.25616
       H    -1.14555   -9.94452   -8.25689
       O    -1.46728  -10.00309   -7.34049
      H1    -1.10081  -10.80554   -7.02232
       H    -2.01052  -15.56803    0.69328
       O    -1.83649  -16.18594    1.44674
      H1    -1.68365  -15.59365    2.19043
       H     3.45770  -17.61302   -2.54694
       O     3.61358  -16.63387   -2.48868
      H1     4.51179  -16.51069   -2.67120
       H     6.06020  -10.99996   -7.76575
       O     6.87215  -10.63416   -8.23772
      H1     6.44605  -10.04372   -8.94237
       H    -4.52314  -11.36759   -1.36982
       O    -5.13629  -11.88571   -0.82924
      H1    -4.83250  -12.78165   -0.93701
       H     2.62862  -15.73969   -1.08487
       O     2.09048  -14.91290   -1.08662
      H1     2.65936  -14.15152   -0.78755
       H    -2.22190  -17.58046   -3.05701
       O    -1.47286  -17.82095   -2.53040
      H1    -1.76185  -18.40429   -1.84638
       H     1.45142  -10.89286    3.77953
       O     2.40769  -10.97649    3.49334
      H1     2.79440  -11.57572    4.10238
       H     3.10677  -15.65257   -3.90141
       O     2.67422  -15.33106   -4.65173
      H1     2.05790  -14.70670   -4.29985
       H    -1.97992   -7.75764   -5.93894
       O    -2.31420   -7.88572   -5.07523
      H1    -2.89549   -7.10824   -4.85982
       H    -0.05308  -12.17269    1.91294
       O     0.29217  -12.32389    1.08038
      H1     1.16278  -12.03844    1.05811
       H     1.02813  -15.95496   -7.55388
       O     0.09033  -15.64539   -7.69043
      H1    -0.19932  -16.08384   -8.48737
       H     1.00232  -13.02602   -9.47177
       O     0.11581  -12.69412   -9.33291
      H1    -0.20622  -13.10496   -8.51045
       H     3.82850  -13.81582   -8.73634
       O     4.47426  -13.91498   -8.04048
      H1     5.31298  -14.09740   -8.49777
       H     3.59828  -16.07276   -7.79037
       O     2.99099  -16.59973   -7.23223
      H1     2.95142  -16.00456   -6.48019
       H     0.00682   -7.65034   -7.21654
       O    -0.85591   -7.09846   -7.33097
      H1    -1.47522   -7.44583   -7.97521
       H     4.65473  -12.57044   -3.56309
       O     4.19273  -12.45448   -2.68454
      H1     3.31291  -12.07984   -2.90417
       H    -2.15396   -8.49413   -9.87899
       O    -2.73944   -8.18579   -9.14329
      H1    -2.68760   -8.80002   -8.42342
       H     5.91404   -7.89598   -6.16578
       O     5.44089   -8.43927   -5.46990
      H1     6.04602   -8.37752   -4.72730
       H     7.42022   -7.62139   -1.63658
       O     6.50081   -7.32365   -1.68831
      H1     5.88756   -8.05567   -1.91790
       H     0.03195   -8.35889   -2.93055
       O    -0.78205   -7.87771   -2.85963
      H1    -1.11611   -7.86745   -3.76161
       H    -4.02662   -9.98733   -2.56127
       O    -3.40609  -10.71088   -2.67285
      H1    -2.51054  -10.52928   -2.28633
       H     0.52760   -9.80649   -1.74497
       O     1.03919   -9.57890   -2.49730
      H1     1.83927   -9.04759   -2.18023
       H     5.67362  -10.20353   -0.89819
       O     5.53619  -10.13022   -1.86306
      H1     5.23311  -10.94920   -2.32343

