171
frame 4 | Written by MDAnalysis XYZWriter (release 2.4.3)
       H     2.62114   17.74721  -10.07413
       O     3.40490   17.19014  -10.27142
      H1     3.58950   16.66638   -9.44271
       H     6.78375   19.40497   -3.19245
       O     7.38143   19.27536   -3.94703
      H1     7.16634   18.37861   -4.22909
       H    -1.55818   17.00369   -3.64326
       O    -2.09790   16.72708   -2.90540
      H1    -1.95106   17.39112   -2.23290
       H     0.30940   14.25010   -3.23630
       O     0.17013   14.91874   -2.52793
      H1    -0.44093   15.59378   -2.90865
       H     1.74062   11.53366   -5.54095
       O     2.61896   11.26470   -5.93737
      H1     3.05583   12.01055   -6.37290
       H     3.34977   18.68895   -3.63036
       O     3.34571   19.29834   -2.83098
      H1     2.43396   19.65040   -2.91053
       H     7.62356   12.54149   -2.20755
       O     6.71478   12.23262   -2.22768
      H1     6.81028   11.42663   -2.73000
       H     2.28342   19.69093   -0.03994
       O     2.08617   18.74824    0.11752
      H1     1.18330   18.68167    0.49446
       H     0.55232   16.62755  -12.76479
       O     0.64461   16.08825  -11.94275
      H1     0.41394   16.72740  -11.25689
       H     7.08246   12.82349   -7.41364
       O     7.60605   12.69739   -6.60061
      H1     7.70406   11.75592   -6.49811
       H    -0.34484   19.19473  -10.44701
       O    -0.37962   18.94051   -9.53169
      H1    -1.27296   18.94191   -9.15229
       H    -1.20132   17.89265   -5.22666
       O    -0.38714   17.33778   -5.08819
      H1     0.18352   17.97567   -4.62406
       H     0.75771   12.68949   -0.21260
       O     1.34402   12.00816   -0.51820
      H1     2.21244   12.34795   -0.80622
       H     9.34751   14.83876   -9.03129
       O     8.91426   15.68291   -8.79188
      H1     9.57679   16.31569   -9.11648
       H     5.58687   14.45170   -3.54779
       O     5.86954   15.21813   -3.05201
      H1     5.97985   15.89068   -3.72262
       H     5.93841   16.03603   -8.86538
       O     6.35525   16.23007   -9.73906
      H1     7.30182   16.00882   -9.70437
       H     2.62483   16.93043   -2.38890
       O     2.95255   16.11499   -2.77064
      H1     3.88953   15.99953   -2.50729
       H     4.74619   14.21452    1.75305
       O     4.46197   14.65324    0.95996
      H1     4.24879   15.52457    1.17357
       H     1.19381   14.67514   -8.01848
       O     0.95892   14.39302   -8.91508
      H1     1.74861   14.55270   -9.48240
       H     5.21393   17.08733  -12.71780
       O     4.28034   17.23721  -12.73163
      H1     3.96721   17.15381  -11.79894
       H    -0.42448   12.22201   -4.97319
       O    -0.06372   12.43750   -5.85630
      H1    -0.76427   12.32287   -6.54562
       H     3.37268   16.20619   -7.24044
       O     4.15151   15.87364   -7.70446
      H1     4.21941   14.87884   -7.47867
       H     7.41065   15.29561   -0.95179
       O     8.19740   14.82744   -0.62625
      H1     8.73943   15.33280   -0.03596
       H    -0.14222   14.76497    0.41418
       O    -0.55043   14.04646   -0.05403
      H1    -0.34063   14.28747   -1.00039
       H     6.25726   18.09076  -10.88565
       O     6.13771   19.03679  -11.07908
      H1     5.43276   19.03624  -11.75238
       H     7.89995   18.46493   -7.77631
       O     7.95257   17.70533   -7.19679
      H1     8.20452   16.93350   -7.71531
       H     6.05319   18.25898   -1.27179
       O     5.54686   19.11424   -1.14477
      H1     4.65915   19.15044   -1.55427
       H     3.31583   10.56152   -4.30607
       O     3.69692   10.09867   -3.58731
      H1     2.99682    9.83683   -3.01489
       H     0.33667   11.26380   -8.38324
       O    -0.31923   11.89620   -8.73984
      H1     0.15545   12.68751   -8.95422
       H     5.95863   14.85938  -10.57019
       O     5.46108   14.12880  -11.03735
      H1     4.53061   14.28146  -10.94102
       H    -0.99606   19.11174    1.37355
       O    -0.51645   18.64465    0.69600
      H1    -0.61338   17.69124    0.84469
       H     4.21859   12.69966   -3.73977
       O     5.06482   12.84511   -4.21372
      H1     5.75238   12.59780   -3.59837
       H    10.78902   16.26445   -4.70107
       O    10.99005   15.51112   -4.19461
      H1    10.18593   15.03468   -4.00683
       H     4.95007    9.44468   -7.94318
       O     5.11383   10.32900   -7.55613
      H1     4.45087   10.61062   -6.94662
       H     9.76487   13.28178   -2.49638
       O     9.07161   13.74718   -2.98305
      H1     8.71481   14.27806   -2.29150
       H     2.81549   17.38548   -5.74938
       O     3.48773   17.45111   -5.03601
      H1     3.35052   16.73936   -4.42347
       H    -1.54535   18.85038   -0.60223
       O    -2.25340   18.76912   -1.31966
      H1    -2.93963   19.34237   -0.92651
       H     6.48349   18.27422    0.74016
       O     6.69102   17.33987    0.65466
      H1     6.88687   16.82295    1.44367
       H     2.26817   13.74794  -11.43604
       O     2.75694   14.44392  -10.99208
      H1     2.40366   15.26244  -11.31204
       H     1.29825   18.07947   -6.68917
       O     2.10327   17.92613   -7.22556
      H1     2.39535   18.90014   -7.32762
       H     5.33273   17.03541   -5.50960
       O     6.18820   16.92098   -5.09981
      H1     6.80015   16.98387   -5.85719
       H     2.41678   14.32917   -3.00827
       O     2.17843   13.68670   -3.66959
      H1     2.35248   14.30915   -4.41096
       H     8.58090   17.70869    0.07248
       O     9.30867   18.25318   -0.24441
      H1     8.88676   19.08454   -0.46312
       H     4.83297   17.34749    0.70216
       O     4.10917   17.34148    1.34448
      H1     3.30113   17.66727    0.92838
       H    -3.83459   17.48786   -2.56615
       O    -4.66552   17.92723   -2.72947
      H1    -5.32755   17.44833   -2.19739
       H     4.53944   13.24687   -6.16184
       O     4.23426   13.17548   -7.06029
      H1     5.01479   13.07331   -7.63628
       H     0.77398   15.74078   -5.94804
       O     1.38707   15.03717   -6.20975
      H1     0.90362   14.27106   -5.99331
       H    -2.98965   19.41337   -5.26635
       O    -2.73575   18.54677   -5.60467
      H1    -3.51025   17.97380   -5.50855
       H    10.67864   18.74523   -4.54994
       O    10.69346   18.07723   -5.21844
      H1     9.82975   18.13318   -5.66287
       H     5.66350   12.90669   -9.85140
       O     6.10955   12.60635   -9.01575
      H1     5.77968   11.76681   -8.76692
       H    -2.79397   14.93739   -6.08520
       O    -2.80800   15.05718   -7.03852
      H1    -1.99977   15.53094   -7.29119
       H     0.12781   11.72159   -2.49578
       O    -0.47454   11.67977   -3.28266
      H1    -1.27824   11.36894   -2.83249
       H    -4.26756   13.99777   -3.89368
       O    -3.64340   14.56768   -4.29717
      H1    -3.26171   15.05364   -3.54114
       H     4.26690   13.41352   -0.60904
       O     3.97565   12.77277   -1.28146
      H1     4.79686   12.48366   -1.71150
       H     0.26580    9.70267   -6.94724
       O     1.03664    9.80944   -7.50646
      H1     1.66869   10.29435   -6.93007
       H    -3.69645   19.81178   -8.66944
       O    -3.14990   19.05287   -8.45714
      H1    -3.15457   18.91916   -7.50303
       H    -0.26915   15.61524   -8.74698
       O    -0.81765   16.34945   -8.34973
      H1    -0.43755   17.16244   -8.72032

