174
frame 5 | Written by MDAnalysis XYZWriter (release 2.4.3)
       H   -13.65013   18.37368   -0.88385
       O   -14.22239   18.75017   -0.19812
      H1   -13.91234   19.66871   -0.08865
       H   -11.84764   17.09131   -2.12379
       O   -12.24061   17.10603   -1.20994
      H1   -11.49683   16.80385   -0.66358
       H    -0.58606   16.87479   -3.77055
       O    -1.03609   16.52197   -2.96776
      H1    -1.50982   17.25904   -2.53706
       H     1.78607   15.83209   -1.64028
       O     0.87192   15.62864   -1.38409
      H1     0.29900   15.79718   -2.11717
       H    -1.87399   12.85316    3.16990
       O    -1.99396   13.74134    2.83491
      H1    -2.81491   13.75671    2.33586
       H     3.62544   18.41648   -4.60195
       O     3.18833   18.68738   -3.77534
      H1     2.52729   19.35949   -3.99138
       H     2.13520   19.44095   -0.10907
       O     2.12122   19.23467    0.85766
      H1     1.29512   18.76475    1.05154
       H    -4.75363   18.46550    5.01937
       O    -5.62811   18.10031    4.80340
      H1    -5.54569   17.70456    3.92454
       H   -12.46100   19.89491   -4.82662
       O   -11.63799   19.37957   -4.66184
      H1   -11.88938   18.49427   -4.95997
       H    -4.16172    9.57017   -3.57811
       O    -4.10368   10.31268   -3.01440
      H1    -4.88841   10.20740   -2.46700
       H    -7.54583   11.46865   -4.21827
       O    -7.55043   12.44839   -4.25315
      H1    -7.38254   12.66956   -5.18868
       H    -8.12592   10.47388   -0.04136
       O    -8.90818   10.86232    0.27378
      H1    -9.58953   10.17083    0.26294
       H    -0.99190   18.74054  -10.57541
       O    -0.99490   18.33981   -9.70166
      H1    -1.91757   18.46789   -9.37135
       H     0.45981   17.13585   -6.08121
       O     0.74049   17.19916   -5.15759
      H1     1.31118   17.98646   -5.03721
       H    -9.77158   17.67479    4.21045
       O    -8.98267   17.75072    4.71488
      H1    -8.22429   17.48050    4.10408
       H   -12.58033   18.59707    0.83864
       O   -11.80106   18.71247    1.40705
      H1   -11.69684   17.99657    2.05079
       H   -10.37464   16.03115   -3.46988
       O   -10.85891   16.85724   -3.39109
      H1   -10.12323   17.53612   -3.22461
       H    -6.58060   14.49048   -9.77258
       O    -7.43251   14.77701   -9.45590
      H1    -7.29809   15.70805   -9.24146
       H    -8.81611   13.03335    2.62740
       O    -8.54255   12.05549    2.68946
      H1    -8.67828   11.56268    1.86080
       H   -10.16856   16.64599   -6.70830
       O   -10.85495   16.50137   -7.39759
      H1   -11.58516   17.08389   -7.06326
       H   -10.59277   16.02880    3.25325
       O   -11.05344   16.82090    3.53828
      H1   -11.77054   16.45893    4.08903
       H    -4.07641   10.23845    1.81902
       O    -3.81085   10.96101    2.38625
      H1    -4.63228   11.41535    2.63278
       H    -2.04846   10.84104   -0.84526
       O    -1.72273   10.22262   -1.55755
      H1    -2.48531   10.01555   -1.99993
       H    -8.55240   18.26514   -6.19669
       O    -8.75927   17.36337   -6.03421
      H1    -7.94561   16.93165   -6.33507
       H    -7.08543   16.50028   -2.16629
       O    -6.48798   16.45551   -1.36921
      H1    -6.08547   15.52366   -1.45069
       H    -3.64127   16.54850   -4.92944
       O    -4.43060   17.07784   -5.03919
      H1    -4.49946   17.53680   -4.18488
       H    -4.39191   12.09680   -3.58540
       O    -4.65683   12.93701   -3.94529
      H1    -5.67471   12.88988   -3.99246
       H    -0.41083   14.70375    2.43198
       O     0.39660   15.25559    2.52738
      H1     0.23118   15.91562    3.20328
       H    -6.76352   16.97998   -8.49134
       O    -7.06873   17.58381   -9.16006
      H1    -6.34379   18.25022   -9.12355
       H    -9.21077   12.54795   -0.20702
       O    -9.31507   13.50655   -0.42238
      H1    -9.13972   13.60214   -1.38546
       H    -0.04387   13.47029    0.93284
       O    -0.18242   13.55423   -0.02918
      H1     0.12980   14.46846   -0.19548
       H   -11.85004   12.18482   -3.35228
       O   -12.13836   13.05381   -3.15377
      H1   -12.97821   12.83264   -2.78089
       H    -8.49077   18.00377   -4.07609
       O    -8.35401   17.85551   -3.14239
      H1    -7.93992   18.67654   -2.83161
       H    -6.16751   15.23415   -6.70904
       O    -6.26825   16.17942   -6.75687
      H1    -5.71256   16.49273   -6.01721
       H    -5.28591   14.16652    1.93446
       O    -4.58557   14.59953    1.43572
      H1    -4.79562   15.54270    1.28538
       H    -5.74372   12.83369    3.79942
       O    -5.94667   12.76742    2.85505
      H1    -6.87180   12.51939    2.81199
       H    -5.65652   12.09060   -1.17428
       O    -5.94040   11.16027   -0.88110
      H1    -5.48637   11.04720   -0.06639
       H    -1.00409   18.39825    1.41751
       O    -0.34945   17.98315    0.81563
      H1    -0.19793   17.07829    1.07885
       H    -9.78904   14.00192    3.48456
       O    -9.32227   14.69354    3.05785
      H1    -9.58116   14.69468    2.12172
       H    -3.16482   11.95457    0.91492
       O    -2.89611   12.25570    0.04263
      H1    -2.46750   13.07229    0.26571
       H    -2.05337   18.02797   -0.32758
       O    -2.66282   18.65993   -0.74165
      H1    -3.39551   18.89263   -0.11187
       H    -4.84481   13.69783   -2.36301
       O    -5.09405   13.96496   -1.45736
      H1    -4.43833   14.12983   -0.75452
       H    -6.51800   17.07328    1.95956
       O    -5.50642   17.26532    2.14289
      H1    -5.33902   18.04393    1.63961
       H    -4.07261   18.60199   -2.07418
       O    -4.76136   18.33894   -2.71768
      H1    -5.45056   18.00204   -2.15059
       H    -5.92281   12.42943   -6.79246
       O    -6.51481   13.25877   -6.81415
      H1    -7.34140   12.98672   -7.14634
       H   -11.80049   13.56727   -0.22232
       O   -12.72153   13.45550    0.01012
      H1   -13.29477   14.08185   -0.44268
       H     1.12160   14.81733   -5.34557
       O     1.38479   13.97871   -5.66072
      H1     0.79800   13.29608   -5.32577
       H    -3.02707   20.17020   -5.52510
       O    -2.77631   19.33991   -5.93707
      H1    -3.19280   18.64973   -5.41242
       H    -7.60238   17.15289    0.01563
       O    -8.03553   17.22403    0.86936
      H1    -8.31483   18.14331    0.98986
       H    -2.19180   14.11506   -6.96105
       O    -2.27558   14.03726   -7.89526
      H1    -1.37215   14.04301   -8.24622
       H     0.59940   12.17819   -2.48488
       O    -0.18399   12.15899   -3.02901
      H1    -0.76419   11.60539   -2.49289
       H    -3.35373   14.16875   -4.64637
       O    -2.77901   14.94205   -4.95744
      H1    -2.08271   14.99962   -4.25201
       H    -3.29602   15.47673   -8.39763
       O    -3.67740   16.08173   -9.03598
      H1    -3.71537   16.91761   -8.56371
       H    -4.08386   19.60404   -9.07714
       O    -3.68242   18.82664   -8.66429
      H1    -3.22159   19.18591   -7.89158
       H   -10.34662   13.54440   -3.24078
       O    -9.45681   13.75266   -3.00037
      H1    -8.81138   13.21302   -3.54744
       H   -10.04078   14.89756    0.06320
       O   -10.33349   15.70417    0.46654
      H1    -9.49915   16.21743    0.54678
       H     0.30445   15.83950   -8.07122
       O     0.33922   16.81388   -7.94454
      H1    -0.30370   17.22989   -8.51196
       H    -4.08032   15.71470    5.39491
       O    -3.34840   15.07381    5.24198
      H1    -3.18321   15.11707    4.32985

