174
frame 8 | Written by MDAnalysis XYZWriter (release 2.4.3)
       H     3.92590   -5.75891   -5.61267
       O     3.17692   -5.22629   -5.97912
      H1     3.30769   -5.36436   -6.93280
       H    -0.19181  -11.80596   -6.87167
       O    -0.60917  -12.70517   -6.81184
      H1    -1.28373  -12.68381   -6.12229
       H     9.40263  -12.97957   -1.17745
       O     8.54819  -12.65869   -1.50343
      H1     8.69539  -12.06023   -2.21830
       H    -1.05769   -7.91490   -3.03580
       O    -0.53692   -8.44405   -3.71025
      H1    -1.25710   -8.66773   -4.34704
       H     1.41457   -7.72230   -3.82245
       O     2.03049   -7.10620   -3.45202
      H1     2.94211   -7.47627   -3.57494
       H     7.13638   -9.09886  -10.33655
       O     6.73387   -9.05260   -9.42854
      H1     7.40550   -8.64341   -8.91677
       H     2.05188  -10.92838   -5.50835
       O     1.22100  -10.37455   -5.69641
      H1     0.79031  -10.57085   -4.85015
       H    -0.43920   -6.07960   -5.22876
       O    -0.01949   -5.53898   -4.51958
      H1     0.84756   -5.90549   -4.33458
       H     8.23753  -14.11001   -2.54987
       O     8.22040  -14.76203   -3.23847
      H1     8.89082  -14.58457   -3.90241
       H     8.28131   -9.94375   -2.90660
       O     8.90218  -10.58041   -3.31310
      H1     9.61669   -9.99393   -3.70824
       H     3.91215  -14.28745   -3.03906
       O     3.54310  -13.98518   -3.92466
      H1     2.98518  -14.70838   -4.29939
       H     2.88362   -9.86229   -9.33943
       O     2.65762   -9.00623   -9.71868
      H1     3.37729   -8.45689   -9.34885
       H     4.49695  -10.95487    1.48721
       O     5.26565  -10.62958    1.00166
      H1     5.30724   -9.67766    1.27242
       H    -2.53061  -14.15023   -5.08102
       O    -2.32358  -13.19985   -4.96350
      H1    -3.20405  -12.77662   -4.74318
       H    -0.76473  -12.37127   -4.08018
       O    -0.17770  -11.89609   -3.46852
      H1    -0.67226  -11.80225   -2.66666
       H     2.61070   -4.48381   -1.37624
       O     3.01778   -5.23411   -1.78861
      H1     2.39209   -5.71353   -2.33735
       H     6.01942  -16.60936   -6.00140
       O     5.44233  -17.31452   -5.67106
      H1     5.33042  -17.13779   -4.69679
       H     1.27708  -14.83206   -1.87247
       O     1.79645  -14.12077   -1.48479
      H1     1.80997  -13.32921   -2.05844
       H     5.06089  -13.89042   -8.70070
       O     5.41379  -13.73635   -7.78783
      H1     4.67028  -13.70753   -7.16806
       H     6.75335   -6.47725   -7.73189
       O     6.02873   -5.87954   -7.44306
      H1     6.21644   -5.03754   -7.86446
       H     7.39191  -14.46247    0.18735
       O     6.48147  -14.04155   -0.02217
      H1     6.65805  -13.21874   -0.51057
       H     6.76036  -15.08552   -7.34407
       O     7.29848  -15.67314   -6.82386
      H1     7.56236  -16.25738   -7.47895
       H    12.51910  -11.74422   -6.51393
       O    11.99230  -11.54439   -5.67636
      H1    11.08895  -11.50256   -5.96688
       H     4.17017  -11.37597   -5.65747
       O     3.42793  -11.97520   -5.78779
      H1     3.53481  -12.66381   -5.13927
       H     3.03038  -11.67409   -7.60954
       O     2.86997  -11.53002   -8.56339
      H1     1.99889  -11.85396   -8.71939
       H     6.47131  -15.75632   -3.26137
       O     5.72161  -16.29228   -3.09711
      H1     5.17265  -15.81804   -2.46557
       H     8.50838   -6.44710   -5.18516
       O     9.16012   -7.15555   -5.40880
      H1     8.90142   -7.34945   -6.27629
       H     4.91668   -8.36574   -5.65234
       O     4.37012   -7.73565   -5.14841
      H1     3.55367   -7.65774   -5.61216
       H     8.62404  -11.93600   -7.49498
       O     9.54213  -12.24519   -7.23102
      H1     9.85637  -12.62078   -8.04760
       H    -1.82417  -14.08922   -9.57466
       O    -1.20275  -14.00783  -10.33875
      H1    -0.56344  -13.29941   -9.99763
       H     2.16889   -8.41412   -7.87498
       O     1.83105   -8.05117   -6.99618
      H1     1.42240   -8.74603   -6.45221
       H     0.74643  -11.56053  -10.44041
       O     0.35173  -11.99209   -9.72287
      H1    -0.13843  -11.28231   -9.28727
       H     0.40606   -9.49492   -2.29390
       O     0.36547   -9.93557   -1.44370
      H1     0.66109   -9.21399   -0.82720
       H     9.06667   -8.12212   -7.81821
       O     8.30352   -7.53019   -7.89789
      H1     8.61010   -6.89914   -8.54926
       H     5.34557  -16.64908   -9.90454
       O     6.02080  -16.06417  -10.27952
      H1     5.72272  -15.17903  -10.25862
       H    -2.35544  -13.09226   -7.71609
       O    -2.96935  -13.48960   -8.28701
      H1    -3.71145  -12.81134   -8.38472
       H    -2.01665   -9.89026   -8.82319
       O    -1.22229  -10.22558   -8.42009
      H1    -1.47567  -10.08038   -7.44374
       H     4.94027   -4.99047   -2.46983
       O     5.83697   -4.69602   -2.70911
      H1     6.14490   -5.03829   -3.56385
       H     3.40430  -14.37039   -1.29688
       O     4.30827  -14.72538   -1.42896
      H1     4.97511  -14.38203   -0.76851
       H     6.16850  -12.14427   -8.07972
       O     6.96518  -11.47182   -8.00011
      H1     6.76860  -10.82895   -8.70142
       H     3.65282   -8.49417  -11.48736
       O     4.39079   -8.53526  -12.18601
      H1     5.15198   -8.08958  -11.74024
       H     3.63670   -8.05983   -0.39391
       O     3.30655   -7.28121    0.07920
      H1     3.35348   -6.56137   -0.59295
       H     0.56229  -16.21591   -6.65035
       O    -0.24169  -16.75468   -6.87892
      H1    -0.25283  -17.01439   -7.79961
       H     2.49015  -14.35466   -9.85248
       O     1.84668  -14.95645   -9.45070
      H1     0.98983  -14.81553   -9.90987
       H     4.07446  -12.63413   -9.80422
       O     4.23409  -13.43083  -10.30473
      H1     4.25450  -13.32130  -11.28907
       H     1.79725  -14.89739   -7.24914
       O     1.62655  -14.70700   -6.31172
      H1     1.04643  -13.93320   -6.33100
       H     0.08777   -7.31844   -7.06746
       O    -0.72662   -6.96814   -6.68775
      H1    -1.35443   -7.08201   -7.37776
       H     1.83015  -11.30571   -2.65503
       O     2.64561  -11.70443   -2.36487
      H1     2.88602  -12.25812   -3.13789
       H    10.90382   -9.16746   -7.73162
       O    10.13643   -9.49054   -7.31655
      H1    10.10930  -10.48370   -7.43765
       H     6.39720  -10.78946   -6.23842
       O     5.74608  -10.35078   -5.58531
      H1     6.11634  -10.32363   -4.68302
       H     6.19258   -8.42125   -3.22937
       O     6.34868   -9.27287   -2.86479
      H1     5.50828   -9.33359   -2.38208
       H     4.62415   -6.73512   -8.83160
       O     4.77290   -7.42843   -9.47521
      H1     5.50387   -8.03181   -9.35267
       H     8.60643  -14.74074   -6.09446
       O     9.48515  -14.60924   -5.78865
      H1     9.70573  -13.69803   -6.02071
       H     2.36643  -17.93988   -6.74652
       O     3.16633  -18.30836   -7.10215
      H1     3.91573  -18.08506   -6.51648
       H     6.33896   -5.91047   -5.79034
       O     6.79035   -5.66616   -4.98487
      H1     7.11379   -4.81387   -5.25506
       H    -2.90361   -9.82597   -4.69722
       O    -2.49902   -9.56486   -5.52755
      H1    -2.91223   -8.67108   -5.57371
       H    11.70856   -8.79818   -4.64365
       O    10.85582   -8.75694   -4.09536
      H1    10.21780   -8.33182   -4.71200
       H     4.64214  -10.17331   -0.51087
       O     4.18951   -9.51621   -1.14589
      H1     3.53842  -10.03897   -1.62028

