174
frame 8 | Written by MDAnalysis XYZWriter (release 2.4.3)
       H     8.78491   -1.24301   -0.50552
       O     8.57102   -2.14801   -0.81427
      H1     9.07394   -2.72467   -0.22965
       H     7.00653   -0.30045    3.04402
       O     7.45423   -1.09226    3.41863
      H1     7.32819   -1.77460    2.78833
       H    12.43083   -2.47656   -0.44819
       O    12.98970   -2.09589   -1.13101
      H1    13.48990   -2.84403   -1.55686
       H     7.43931    4.21364    3.85454
       O     7.31893    3.24225    3.90104
      H1     7.31965    2.94659    4.81076
       H    14.26925    4.15987    1.94365
       O    14.67415    4.87747    1.39982
      H1    15.28673    4.38038    0.89215
       H    15.72116    3.00416    7.33997
       O    15.77760    3.63256    6.57751
      H1    15.88909    4.50353    7.00201
       H    11.25910    5.99603   -7.05809
       O    10.77423    5.61734   -6.26656
      H1    11.36593    5.45686   -5.53445
       H    13.30004    8.96872    2.43758
       O    13.03078    8.17230    2.02588
      H1    13.84523    8.02523    1.46655
       H     8.45946    9.25215    4.01228
       O     9.00768    8.90763    3.23996
      H1     8.54922    9.27801    2.50633
       H    14.85508    3.20669   -5.80794
       O    14.57766    3.07623   -4.82930
      H1    13.89615    3.72601   -4.60170
       H    10.51555    8.00959   -2.83370
       O    11.16612    8.52291   -2.32405
      H1    10.67446    8.74214   -1.51293
       H    10.21934    4.18200   -2.13080
       O    10.53966    5.06403   -2.26210
      H1    11.34519    5.15089   -1.70099
       H    13.19704    4.75487    5.01166
       O    13.45017    3.81138    5.20540
      H1    14.27675    3.88404    5.74447
       H    12.20250    3.17002    6.17923
       O    11.33230    3.04639    6.67755
      H1    11.12761    2.06015    6.60836
       H    10.25727   -1.54486    3.26467
       O    10.22395   -0.59488    3.18738
      H1     9.31525   -0.36710    3.55601
       H     9.49221    7.73555    6.02043
       O     8.98043    6.92206    6.29860
      H1     9.39237    6.18572    5.82331
       H     6.74530    2.88769    0.59127
       O     6.48148    3.56289   -0.06305
      H1     5.49738    3.72910   -0.00487
       H    17.18870    2.74613    1.27500
       O    16.97993    3.27000    0.48158
      H1    17.77563    3.20262   -0.08091
       H    15.28012   -1.23982   -3.78883
       O    15.85865   -0.92646   -3.07475
      H1    15.28063   -0.28272   -2.54761
       H     6.99673    9.80001    0.36402
       O     7.75603    9.44357    0.84796
      H1     8.07352    8.70716    0.29118
       H     6.07495    0.49313   -1.20286
       O     5.47542   -0.29297   -1.07727
      H1     5.00851   -0.12265   -0.23798
       H    12.37621    7.50796    6.85118
       O    12.80357    8.18124    6.26085
      H1    11.99796    8.59383    5.85388
       H    14.57747    0.49475   -0.58531
       O    14.42690    0.78891   -1.48553
      H1    14.56487    1.73821   -1.60966
       H    14.45666    3.09135    3.82279
       O    14.90308    2.57014    3.09573
      H1    14.51603    1.70928    3.06775
       H    11.84317   -2.86303    1.75736
       O    11.19090   -2.73252    1.00664
      H1    10.71818   -3.59408    1.08337
       H    11.35384    5.53610    4.37855
       O    10.49995    5.14549    4.67593
      H1    10.77455    4.42723    5.33810
       H     7.13067    0.70649    6.03814
       O     7.43733    1.60193    6.20848
      H1     8.37764    1.62669    6.41045
       H     7.89705    6.53134    4.23597
       O     7.26811    5.97016    3.69799
      H1     7.36026    6.26793    2.80567
       H    10.25916   10.06156    5.68043
       O    10.69926    9.35457    5.23846
      H1    10.21020    9.27189    4.41235
       H     6.30371    8.06838    1.01598
       O     5.50870    7.59292    0.67013
      H1     4.78306    7.82141    1.30814
       H     8.20546    7.94180   -1.62796
       O     8.67328    7.71848   -0.80469
      H1     8.22211    6.99307   -0.32663
       H     8.03852    1.06813    1.47479
       O     7.20163    1.31834    1.87414
      H1     7.42794    2.09358    2.45655
       H    10.62767    1.77362   -1.61076
       O     9.87996    2.34742   -1.28989
      H1     9.00118    1.99535   -1.50828
       H    12.80686    0.66884   -1.75005
       O    11.88616    0.53406   -2.05390
      H1    11.87502   -0.43759   -2.02325
       H    11.67002    4.08707    1.07991
       O    11.68392    3.90274    2.02661
      H1    11.03159    4.44225    2.46313
       H    13.35186   -1.57046    3.91443
       O    13.51083   -0.77354    3.40408
      H1    13.01285   -0.03257    3.73479
       H    13.27271    7.05625    3.45693
       O    13.11247    6.51855    4.25656
      H1    12.98083    7.16067    4.96974
       H    15.42787    3.07324   -0.70927
       O    14.93065    3.36824   -1.48286
      H1    15.57250    3.47260   -2.22174
       H    13.08299    1.97662   -4.64945
       O    12.43545    1.32361   -4.85001
      H1    12.13540    0.91657   -4.02196
       H    11.76884    4.85613   -3.36457
       O    12.39124    4.69960   -4.11807
      H1    13.13162    5.32808   -3.92045
       H     7.18341    2.06231   -2.83967
       O     7.19085    1.72982   -1.93143
      H1     6.96397    2.52415   -1.34021
       H    15.34197   -1.32346    0.95761
       O    15.04898   -0.40752    1.26069
      H1    14.47533   -0.58003    2.06238
       H    11.19321    6.46504    8.65021
       O    11.69372    5.90376    8.05916
      H1    11.06945    5.27354    7.71622
       H    11.07434    2.32599   -5.62572
       O    10.13486    2.69222   -5.75889
      H1    10.36485    3.63375   -5.98581
       H    16.04815    5.18748    3.13091
       O    16.75159    5.44015    3.68654
      H1    17.24809    4.65461    4.02308
       H     9.98987    7.44562    2.72257
       O    10.41520    6.74546    2.16356
      H1    11.34839    7.03280    2.04274
       H    15.69777    7.34435    0.03665
       O    14.77543    7.29706   -0.27463
      H1    14.66949    6.77032   -1.09949
       H    13.52440   10.07797   -0.94263
       O    14.39490    9.98820   -0.51806
      H1    14.61962    9.04900   -0.61909
       H    15.21274    6.31068   -3.56056
       O    14.39815    6.47383   -3.05169
      H1    14.20350    7.34639   -3.32052
       H    11.09896    0.80396    3.60564
       O    11.81495    1.25131    4.12764
      H1    11.98958    2.09275    3.70854
       H     8.10907    3.39563   -5.00702
       O     7.24036    2.87975   -4.91700
      H1     6.65697    3.52538   -4.52542
       H    14.83862   10.10906    3.63002
       O    13.85329   10.19430    3.59524
      H1    13.55290   10.25748    4.49701
       H    13.50611    4.39592   -1.10317
       O    12.86229    5.00054   -0.81946
      H1    13.16884    5.39073    0.02375
       H     7.89112    5.14241    0.58696
       O     8.13538    5.97780    1.01804
      H1     9.07860    5.89853    1.28075
       H    16.96327    6.86353    1.86867
       O    17.36827    7.37285    1.13114
      H1    17.89648    6.70214    0.61288
       H     9.81588   -0.27602    7.17511
       O    10.09813    0.40245    6.55286
      H1    10.61063   -0.08896    5.87942
       H     9.68722    6.13789   -3.42671
       O     9.40272    6.92973   -3.88367
      H1     8.59653    7.19922   -3.45027
       H     9.98294    0.73542   -0.04739
       O     9.49722    0.15728    0.54145
      H1    10.19407   -0.20941    1.09808

