174
frame 7 | Written by MDAnalysis XYZWriter (release 2.4.3)
       H    18.09961  -10.77395   13.01132
       O    18.70991  -11.53352   12.71769
      H1    18.46502  -12.23724   13.29999
       H    15.26301  -10.62013   13.94433
       O    15.30191  -11.27615   14.57956
      H1    14.58538  -10.98877   15.20852
       H    11.99162   -6.28278    9.80214
       O    11.02256   -6.21867    9.93675
      H1    10.84088   -5.41250   10.42716
       H    12.21173  -16.68727   12.25000
       O    12.50622  -16.24879   11.44038
      H1    11.83515  -16.54922   10.76688
       H    15.83702  -15.17467   17.48067
       O    16.09739  -15.97738   17.84307
      H1    17.05623  -16.00848   17.74794
       H    15.58194  -18.91333   15.11607
       O    14.75300  -18.56527   14.88484
      H1    14.40031  -19.15040   14.20817
       H    18.11747   -3.94897   10.73635
       O    18.38161   -3.07872   10.32335
      H1    19.16754   -2.89176   10.83295
       H    12.85507  -13.57468   15.11523
       O    12.03271  -13.34968   15.59688
      H1    11.34181  -13.96309   15.28853
       H    18.53973  -15.15058   16.55905
       O    18.66140  -15.83454   17.25969
      H1    19.12653  -16.55297   16.84880
       H    14.28055   -5.88472   10.39737
       O    13.79289   -6.01844    9.56981
      H1    13.84178   -5.19669    9.02047
       H    18.44762  -12.14309    4.35856
       O    17.78701  -11.59588    4.76652
      H1    17.82588  -10.75740    4.24963
       H    18.17183  -11.51423    8.10311
       O    17.70060  -12.18015    8.65686
      H1    18.39213  -12.69932    9.07409
       H    11.58280  -11.76927   14.71076
       O    11.19485  -10.95037   14.37697
      H1    11.28842  -11.01031   13.40315
       H    15.01350  -12.74934    5.73935
       O    15.35677  -12.82410    4.88116
      H1    16.28311  -12.45977    4.86128
       H    11.88892   -8.60204    6.60136
       O    12.31508   -9.40892    6.93390
      H1    13.10838   -9.07903    7.38463
       H    16.36618  -15.97673   13.47261
       O    16.97256  -15.95526   12.73059
      H1    17.81768  -16.41439   12.92376
       H    17.58322  -11.69166   11.47036
       O    16.80406  -11.51293   10.95397
      H1    17.10126  -11.56449   10.05866
       H    12.53700  -10.02784   15.90777
       O    13.34777  -10.25771   16.41598
      H1    13.65804   -9.42962   16.74862
       H    14.86225  -12.36108   10.03052
       O    14.05993  -11.98467    9.70339
      H1    13.38372  -12.56711   10.12952
       H    14.43311   -7.68525    9.00817
       O    14.49859   -8.56057    8.53284
      H1    14.02941   -9.10190    9.16149
       H    13.70876   -7.20176   15.31217
       O    13.30065   -7.70938   14.55251
      H1    12.31705   -7.72132   14.55053
       H    14.89989  -12.99871   17.72559
       O    15.55838  -13.34145   17.16372
      H1    16.21762  -12.67193   16.96044
       H    18.10953  -12.18208   15.73313
       O    17.61120  -11.47741   16.19372
      H1    16.83125  -11.27019   15.68410
       H    16.57818  -13.02535   14.42491
       O    17.33220  -13.50593   14.14165
      H1    16.98537  -14.18400   13.50307
       H    15.78570   -4.00995    8.35275
       O    16.60264   -4.46754    8.57625
      H1    17.09259   -3.87811    9.16645
       H    11.64161  -11.27678   10.45429
       O    11.62109  -10.73046   11.23474
      H1    12.56492  -10.54980   11.35331
       H    10.56944   -9.33692   10.92248
       O     9.98202   -8.55890   10.72129
      H1    10.52631   -7.82650   10.48086
       H    16.41183  -17.48449   12.05293
       O    16.39955  -18.42537   11.73037
      H1    15.52565  -18.78009   11.78999
       H    19.83675  -10.26893    7.11104
       O    18.85669  -10.36287    6.98060
      H1    18.83004  -10.89063    6.21929
       H    14.08688  -13.10405    7.40916
       O    13.73926  -13.75716    6.79940
      H1    14.11858  -14.56068    7.12763
       H    14.37840  -14.48492   14.31463
       O    14.01412  -13.66516   13.93991
      H1    14.60446  -12.96378   14.29389
       H    17.36082  -17.22807    9.06165
       O    17.93939  -17.83687    9.58568
      H1    17.28374  -18.16882   10.23951
       H    15.49517   -9.07789   19.96830
       O    16.04947   -9.11411   19.17520
      H1    16.37136   -9.99244   19.29074
       H    14.66919   -7.69687   17.53639
       O    13.98592   -7.08177   17.14279
      H1    13.20406   -7.01500   17.69252
       H    13.09453  -14.13442   18.39380
       O    12.93541  -13.18552   18.25301
      H1    12.53272  -13.21857   17.34519
       H    18.99927   -4.37547   15.10151
       O    18.14301   -4.73098   14.88325
      H1    17.53956   -3.94799   14.79264
       H    11.95320  -14.58845    9.33471
       O    11.81228  -14.92808    8.42869
      H1    12.48259  -14.38247    7.91704
       H    14.50272   -6.92745   12.67436
       O    14.93916   -6.11445   12.40278
      H1    14.70236   -5.46001   13.07282
       H    17.77315  -15.51455    4.48497
       O    16.89696  -15.50896    4.07432
      H1    16.34641  -15.15086    4.77961
       H    19.84888   -9.60815   16.26357
       O    19.09100   -9.41468   16.83190
      H1    18.45542  -10.12555   16.59025
       H    13.86382   -8.93355   13.15305
       O    14.11632   -9.47947   12.41352
      H1    15.01263   -9.20136   12.15673
       H    12.82570  -16.41500    8.22934
       O    13.57204  -16.96596    8.08427
      H1    13.49918  -17.63761    8.76107
       H    12.56971  -14.62616   11.23929
       O    12.39334  -13.71248   10.96574
      H1    11.97009  -13.40921   11.81298
       H    16.39920  -13.27233   10.59030
       O    16.22057  -14.24752   10.49101
      H1    15.59818  -14.63092   11.10699
       H    18.66286   -8.56600    6.96823
       O    18.54371   -7.62652    7.06550
      H1    19.38848   -7.21596    6.75919
       H    19.46636  -15.58435   10.49003
       O    19.10761  -14.79282   10.91453
      H1    18.17786  -14.73149   10.62635
       H    15.80523  -16.04441   15.63081
       O    15.21985  -15.95108   14.90050
      H1    14.79705  -16.86483   14.90007
       H    17.63755  -15.79621    7.22771
       O    18.39419  -16.36592    7.09540
      H1    18.01000  -17.17440    6.71108
       H    17.95497   -8.61379   13.89932
       O    17.45602   -9.28450   13.34022
      H1    17.34356   -8.84065   12.48599
       H    16.21646   -5.99659   16.72093
       O    16.98170   -5.52997   17.14712
      H1    17.37429   -5.06547   16.41167
       H    17.57923   -6.38487   10.83463
       O    17.64701   -5.68215   11.48239
      H1    16.76311   -5.77961   11.92149
       H    15.49776   -8.01223    7.20872
       O    15.95891   -7.64932    6.38845
      H1    16.88975   -7.46555    6.53795
       H    18.41239   -6.49318   14.29720
       O    18.92508   -7.32022   14.33013
      H1    19.83759   -7.07205   14.24233
       H    15.97909  -14.90489    8.74049
       O    15.88710  -15.41302    7.91549
      H1    15.15901  -16.00522    8.06527
       H    16.65562   -9.87040   10.80781
       O    16.52621   -8.84867   10.76622
      H1    15.79352   -8.68822   10.09295
       H    18.85757   -8.06031    8.92459
       O    18.98701   -8.03132    9.89407
      H1    18.25244   -8.55240   10.24810
       H    19.47644   -7.66894   17.05721
       O    19.58539   -6.88313   17.53887
      H1    18.81816   -6.33630   17.29152
       H    10.51215  -11.97100    7.82712
       O    11.12079  -11.48241    8.40575
      H1    11.66417  -10.93981    7.88036

