174
frame 9 | Written by MDAnalysis XYZWriter (release 2.4.3)
       H    -6.59910   -8.21602    4.30605
       O    -6.33513   -7.63418    5.07476
      H1    -7.18691   -7.51902    5.53439
       H    -6.48891  -16.30484   10.14286
       O    -5.65399  -16.13474    9.62630
      H1    -5.21497  -16.99208    9.59339
       H     1.11953  -13.62263    8.03711
       O     1.59450  -13.10869    8.70985
      H1     2.04725  -12.25178    8.30631
       H     3.94395   -7.71477    5.38519
       O     3.47041   -7.04820    5.90538
      H1     3.95843   -6.20889    5.61199
       H    -0.58018   -6.05466    5.54155
       O    -0.30024   -6.73087    6.14266
      H1    -0.92322   -7.45683    6.08059
       H     0.78602  -14.88307    1.61669
       O     1.51726  -14.95894    2.29569
      H1     2.35351  -15.15717    1.78462
       H     0.61763  -11.43991   10.95450
       O     0.61746  -12.40191   11.00951
      H1     0.81018  -12.71418   10.12194
       H    -6.29973  -15.27444    6.35949
       O    -5.76642  -15.78455    5.65858
      H1    -6.31727  -16.25634    5.08999
       H     2.68909   -6.53603    3.14216
       O     1.99235   -7.25813    3.12697
      H1     2.21650   -7.73395    3.96273
       H     2.60975  -11.80163    3.58136
       O     2.99086  -11.06865    3.01817
      H1     2.23670  -10.64543    2.63554
       H    -0.11273   -7.19659   12.43149
       O     0.80205   -6.88921   12.31272
      H1     0.90221   -6.29680   11.54006
       H    -4.44546  -10.70871    4.13934
       O    -4.18045   -9.92350    3.55936
      H1    -3.29907  -10.15609    3.25331
       H    -0.93126  -13.27106    4.90686
       O    -0.37650  -12.63126    5.34142
      H1     0.55213  -12.72278    5.07969
       H    -3.31625   -7.70238   10.83097
       O    -2.51129   -7.24395   10.35189
      H1    -2.62139   -6.28645   10.26548
       H    -5.15203   -6.92504    3.96151
       O    -4.26605   -6.49231    3.77118
      H1    -4.45146   -5.99374    2.96762
       H     5.81111  -11.54198   10.04648
       O     5.19451  -12.12903    9.55160
      H1     5.81655  -12.76962    9.16279
       H    -2.01385   -9.16686   12.64483
       O    -1.43469   -8.45095   12.40305
      H1    -1.99326   -7.93462   11.65271
       H    -2.05973  -16.29428    8.97292
       O    -2.33261  -15.39562    8.65689
      H1    -2.46840  -15.44534    7.71345
       H    -1.96996  -11.60827   13.37427
       O    -2.11728  -10.72732   13.73784
      H1    -1.47793  -10.48409   14.41818
       H    -4.35123  -15.46854   10.63402
       O    -3.97287  -15.26858   11.53110
      H1    -3.13961  -15.71892   11.47673
       H    -5.52860   -7.80517    9.66926
       O    -6.00909   -7.28349    8.96521
      H1    -5.69892   -7.72819    8.12490
       H    -3.98482  -12.53777    9.72605
       O    -4.40465  -12.74083   10.59235
      H1    -4.25393  -13.67758   10.84107
       H    -4.08054  -12.74175    1.43523
       O    -3.78724  -13.27850    2.20450
      H1    -4.59352  -13.50036    2.71320
       H    -2.48091  -17.71566    4.40265
       O    -2.36663  -18.19530    5.18825
      H1    -1.52075  -17.78222    5.56288
       H    -0.65695  -10.71117    7.99015
       O    -1.24747  -11.33065    7.59383
      H1    -0.71986  -11.70327    6.88037
       H     0.04540   -9.59381   11.95548
       O     0.69860   -9.63466   11.25326
      H1     1.36273   -8.95474   11.58218
       H    -5.62753  -11.45174   11.74189
       O    -5.81900  -10.70422   12.31965
      H1    -5.27586  -10.69266   13.10872
       H    -2.25487   -8.97776    5.19120
       O    -2.05953   -8.89952    6.14905
      H1    -1.81593   -9.85804    6.41173
       H     5.66125  -11.42560    6.43246
       O     4.90543  -11.30909    7.03839
      H1     5.19627  -11.52115    7.90951
       H    -4.09350  -12.78630    7.36391
       O    -3.98859  -13.45847    6.66532
      H1    -4.78383  -14.04031    6.75369
       H    -6.86606  -14.18363    2.77601
       O    -6.16608  -14.02093    3.40133
      H1    -6.03555  -14.72774    4.01735
       H    -2.55368  -10.31956    1.45943
       O    -1.97257  -10.96006    1.85007
      H1    -2.57075  -11.58977    2.28085
       H    -1.06022  -12.72197   11.77886
       O    -1.80708  -13.06609   12.34066
      H1    -2.65246  -12.86734   11.93675
       H     2.01483   -7.71953    7.96226
       O     2.29709   -8.05960    8.80480
      H1     1.56193   -8.25591    9.37511
       H    -2.39936  -16.11158    1.95829
       O    -2.62767  -16.46851    2.84182
      H1    -2.88058  -15.67714    3.37238
       H    -0.03641   -9.17823    9.72456
       O    -0.51657   -8.90970    8.92391
      H1    -1.10809   -8.24819    9.29842
       H    -3.85900   -9.06169    6.50672
       O    -4.79169   -9.12360    6.76931
      H1    -5.37138   -8.66575    6.14421
       H    -0.60039  -14.78247    7.93006
       O     0.02076  -14.78180    7.21814
      H1    -0.17634  -13.95436    6.76696
       H    -4.56794   -4.78358    7.84146
       O    -4.71709   -4.94476    8.80261
      H1    -5.23718   -5.77461    8.92293
       H     3.92405   -8.34456   11.07450
       O     3.29159   -8.74863   11.63581
      H1     3.24874   -9.70257   11.42386
       H     0.54480   -8.52186    5.55628
       O     0.85379   -9.21401    4.97464
      H1     1.30112   -9.80140    5.58598
       H    -0.38271  -18.29191    7.68228
       O    -0.78312  -18.61994    8.53188
      H1    -1.13940  -19.52899    8.29885
       H    -5.48849   -9.14829   11.65565
       O    -5.15925   -8.29706   11.32278
      H1    -5.39191   -7.62799   11.94741
       H    -1.05670  -12.30266    1.13408
       O    -0.74374  -13.08452    0.59710
      H1    -0.44340  -12.62195   -0.20435
       H     3.26722  -10.70059    7.35305
       O     2.38080  -10.65075    7.71965
      H1     2.23740   -9.80124    8.22627
       H     3.59215  -16.00754    9.41586
       O     3.13666  -15.34602    9.95024
      H1     2.88688  -14.64387    9.34854
       H    -1.53382   -7.22444    2.95430
       O    -2.11074   -7.97779    3.20988
      H1    -2.96337   -7.51092    3.25139
       H    -8.17137  -14.71443    7.74088
       O    -7.23600  -14.47456    7.70088
      H1    -6.87161  -14.54084    8.61050
       H     0.66276   -9.19773    2.92813
       O     0.72776   -9.79372    2.17524
      H1    -0.14407  -10.23213    2.20770
       H     2.98681  -12.61324    5.57417
       O     2.35296  -12.76632    4.90286
      H1     2.52750  -13.65682    4.52671
       H    -0.04545  -16.46215    6.46479
       O    -0.04754  -17.27964    5.91710
      H1     0.08114  -17.04984    4.94329
       H     0.21761   -5.63714    7.60236
       O     0.42511   -4.86845    8.09789
      H1     0.75469   -5.06773    8.94763
       H    -2.93462  -13.80363    3.45096
       O    -2.62332  -14.19049    4.31001
      H1    -3.10231  -13.79121    5.08297
       H    -5.12914  -12.28635    5.64394
       O    -5.63405  -11.92217    4.88878
      H1    -5.81480  -12.69351    4.28080
       H    -7.59411  -12.64853    7.97747
       O    -7.60942  -11.69455    7.78701
      H1    -6.73193  -11.53240    7.41232
       H    -2.92147  -11.38519    8.15829
       O    -3.84792  -11.41287    8.28503
      H1    -4.26645  -10.59344    7.98334
       H     2.17113  -12.21318   11.45424
       O     3.03502  -11.85600   11.76957
      H1     3.63559  -12.06440   11.07268
       H    -1.84215  -14.49056   13.48098
       O    -1.93100  -15.10632   14.22836
      H1    -1.05012  -15.27434   14.55480

