174
frame 11 | Written by MDAnalysis XYZWriter (release 2.4.3)
       H   -18.82859    0.57956   -3.59820
       O   -19.05928    1.32947   -4.13654
      H1   -18.24360    1.47225   -4.62790
       H   -19.18836   11.75034   -8.38081
       O   -18.97851   10.84752   -8.34151
      H1   -19.52486   10.56471   -7.57314
       H   -11.04039    8.45930  -12.29358
       O   -10.46123    8.66824  -13.08683
      H1   -10.04226    7.82146  -13.24574
       H   -16.35478   -1.27812  -10.00137
       O   -15.54736   -0.94752  -10.36378
      H1   -15.00529   -0.57364   -9.64318
       H   -17.97066   12.24900   -5.99283
       O   -18.70624   12.92342   -5.82331
      H1   -19.53109   12.59886   -6.14877
       H   -12.89188    3.43911   -4.45466
       O   -12.27952    3.17160   -5.20725
      H1   -11.80688    2.42965   -4.82738
       H   -17.62974    4.39406   -9.22797
       O   -17.71357    5.16533   -9.78096
      H1   -18.42299    4.94355  -10.42101
       H   -14.16918   11.63204  -10.43146
       O   -14.20503   11.81637   -9.49360
      H1   -14.99204   12.38393   -9.39280
       H   -14.40436   11.27151  -12.80415
       O   -14.47983   10.79689  -11.94943
      H1   -15.41974   10.59769  -11.84002
       H   -15.49970    5.96352   -2.74167
       O   -14.68179    5.96734   -2.19561
      H1   -14.30883    6.83318   -2.46110
       H   -17.54633    2.04758   -9.83811
       O   -16.72818    2.53949   -9.82305
      H1   -16.91033    3.37993  -10.26393
       H   -14.73455    8.25148   -3.40747
       O   -13.83670    8.38362   -3.08621
      H1   -13.85045    8.95022   -2.27927
       H   -15.21428    5.57678  -16.88021
       O   -15.46061    4.84067  -16.29333
      H1   -14.70805    4.20986  -16.49551
       H   -19.86236   -2.17811  -10.77220
       O   -18.94572   -1.92757  -10.45651
      H1   -18.55338   -2.81341  -10.11319
       H   -14.64251    2.61046   -9.82203
       O   -13.85662    2.82121  -10.27453
      H1   -13.20710    3.12136   -9.64502
       H   -14.76131    7.91018  -11.43796
       O   -13.99969    8.02936  -11.94665
      H1   -13.89981    8.96897  -12.12048
       H   -13.90410    1.13048   -7.93779
       O   -13.80296    0.22888   -8.17292
      H1   -12.98292    0.21651   -8.66266
       H   -19.43733   13.28160  -14.83849
       O   -18.47532   13.38091  -14.93047
      H1   -18.14757   12.70354  -14.31577
       H   -11.84384    9.22368   -7.99371
       O   -12.41360    8.47392   -8.00793
      H1   -13.29564    8.82633   -8.02392
       H   -11.48668    8.26004   -9.94181
       O   -11.62799    7.71505  -10.74491
      H1   -12.47536    8.06118  -11.13047
       H   -11.32707    4.98436  -11.86022
       O   -11.21125    4.42583  -12.62837
      H1   -12.09376    4.19186  -13.01290
       H   -17.08824   14.40928  -11.89605
       O   -17.85984   14.29938  -11.28801
      H1   -18.64171   14.67602  -11.79069
       H   -16.21037    2.09430   -2.55636
       O   -15.42043    1.83677   -3.07038
      H1   -15.71166    1.99690   -3.99063
       H   -15.44658    5.56748  -14.54051
       O   -15.43167    5.79654  -13.59112
      H1   -14.59935    6.28246  -13.35230
       H   -18.03716    9.77542   -4.89976
       O   -18.94526    9.72436   -4.48639
      H1   -18.71793    9.19422   -3.68024
       H   -15.53513    6.64609   -9.55595
       O   -15.94774    7.28187  -10.19795
      H1   -16.67371    6.88296  -10.65829
       H   -13.96238    6.28075   -7.82465
       O   -14.08344    5.50972   -8.45019
      H1   -13.28382    5.51020   -8.98175
       H   -16.31056    9.47434   -4.19331
       O   -16.29708    8.54027   -4.43574
      H1   -16.58126    8.46625   -5.39230
       H   -14.05165    3.05633   -6.38535
       O   -14.42105    2.76296   -7.19937
      H1   -14.60096    3.56762   -7.70981
       H   -16.92992   13.69047   -9.50092
       O   -16.90196   13.10232   -8.75192
      H1   -16.69721   13.60933   -7.97866
       H   -11.50877    6.19115  -10.09496
       O   -11.54929    5.25947   -9.80232
      H1   -10.89522    5.11827   -9.12056
       H   -17.96203    7.80092   -7.50512
       O   -17.32726    8.31798   -6.91673
      H1   -16.60979    8.61391   -7.51393
       H   -17.56936    8.16566  -15.19263
       O   -16.78244    8.21593  -15.74781
      H1   -16.41643    9.11441  -15.81176
       H   -17.06659    3.09409   -5.74968
       O   -16.76281    2.22997   -5.54683
      H1   -16.17046    2.11219   -6.25402
       H   -16.56786    1.71305  -11.29522
       O   -16.89596    1.51429  -12.24519
      H1   -16.82099    0.50356  -12.21648
       H   -17.55651    6.20968   -3.08770
       O   -17.06058    5.43223   -3.44514
      H1   -16.90871    5.52255   -4.37773
       H   -18.05206   13.91387   -2.98252
       O   -17.81151   13.08570   -3.34084
      H1   -18.27190   12.99841   -4.16032
       H   -17.18540    6.47856  -12.71455
       O   -17.75976    6.88487  -12.07906
      H1   -18.58165    6.40732  -12.00350
       H   -19.83494    5.67615   -0.02978
       O   -19.32581    6.49746   -0.14197
      H1   -19.30676    6.81659   -1.05292
       H   -14.52682    4.33229  -13.34168
       O   -13.84672    3.62228  -13.30583
      H1   -13.99339    3.26974  -12.41712
       H   -17.61648    7.80337  -17.59801
       O   -18.36413    7.31669  -18.04628
      H1   -18.49391    7.88989  -18.77648
       H   -13.20298   12.80842   -8.32399
       O   -12.63597   13.10017   -7.61510
      H1   -12.82001   14.07644   -7.50792
       H   -16.30870   10.75587   -6.97002
       O   -16.35875   11.17844   -6.10504
      H1   -15.46671   11.47070   -5.88974
       H   -18.35131    3.84850  -15.83986
       O   -17.96685    3.78013  -16.72867
      H1   -17.02339    4.08870  -16.67380
       H   -17.55205    5.33818   -7.05847
       O   -17.62200    4.70951   -6.36105
      H1   -18.36110    4.09430   -6.56261
       H   -17.33050   10.47315   -9.93093
       O   -17.11905   10.06507  -10.72248
      H1   -17.58808    9.20665  -10.71666
       H   -20.03440    1.65732  -12.57048
       O   -19.26898    1.42404  -13.16897
      H1   -18.44214    1.46400  -12.69299
       H   -15.60511    1.30663  -13.48994
       O   -14.89944    1.20272  -14.14673
      H1   -14.58555    2.08710  -14.28820
       H   -13.22520    8.32015  -16.09620
       O   -13.86798    7.59872  -16.03293
      H1   -14.71288    8.02617  -15.97014
       H   -17.60980    3.93338   -2.82781
       O   -17.98791    3.23513   -2.29113
      H1   -18.60334    2.82101   -2.93458
       H   -19.67282    7.91438   -9.50122
       O   -19.53983    7.13253   -8.86768
      H1   -18.87794    6.62310   -9.34063
       H   -19.87932    8.96317  -14.74353
       O   -19.16236    8.69236  -14.13503
      H1   -19.47688    8.35105  -13.29647
       H   -17.33630   10.14935   -2.25272
       O   -16.62496   10.75387   -2.59974
      H1   -17.06524   11.51588   -2.95174
       H   -17.82181   11.14135  -12.11364
       O   -18.20354   11.43322  -12.96138
      H1   -18.44669   10.63395  -13.44549
       H   -20.05379    4.06206  -14.23216
       O   -19.06593    3.95316  -14.18844
      H1   -19.01087    3.01539  -13.90580
       H   -12.67878    7.91105   -6.38809
       O   -13.30273    7.53745   -5.69655
      H1   -13.48400    8.23734   -5.07253
       H   -15.37839    8.83288   -9.34139
       O   -15.08215    9.34487   -8.54994
      H1   -14.89778   10.22167   -8.93042
       H   -15.75031   14.03972   -5.70198
       O   -16.45982   14.50054   -6.07927
      H1   -17.30678   14.14003   -5.76790

