174
frame 8 | Written by MDAnalysis XYZWriter (release 2.4.3)
       H    -7.93314  -16.41018  -10.83425
       O    -8.57444  -17.12140  -10.68338
      H1    -8.11531  -17.92690  -10.89613
       H   -13.48002  -13.61429  -17.70376
       O   -13.88285  -13.20202  -18.45661
      H1   -14.49712  -12.57805  -18.06671
       H   -17.41985  -15.23574  -10.41940
       O   -17.11701  -15.97208  -10.95982
      H1   -16.71480  -16.50573  -10.25295
       H   -12.01957  -15.26478  -17.12638
       O   -12.33372  -14.43297  -16.76572
      H1   -11.55323  -13.88797  -16.81095
       H    -9.09724  -12.72472  -18.15001
       O    -9.88009  -12.61837  -18.70388
      H1    -9.63030  -12.45470  -19.59590
       H    -7.39128  -16.52266  -15.25055
       O    -7.87943  -16.56458  -14.37927
      H1    -7.48338  -17.36434  -13.90617
       H    -8.89033  -10.82311  -10.35740
       O    -8.62982  -10.16038  -11.02076
      H1    -7.66690  -10.10600  -10.79929
       H   -11.23231  -16.44137  -11.92067
       O   -11.38459  -16.40928  -10.98008
      H1   -10.53431  -16.56546  -10.55770
       H   -11.20757  -10.86995  -13.21139
       O   -11.39069  -11.39048  -13.98090
      H1   -10.61540  -11.90139  -14.16424
       H   -11.95568  -19.17574   -9.05716
       O   -11.91255  -19.26955   -8.11760
      H1   -12.60739  -18.66791   -7.82879
       H    -9.89285  -13.91571  -12.08510
       O   -10.41755  -13.53100  -11.34533
      H1   -10.84247  -14.33766  -11.01805
       H   -12.93140   -9.55246  -14.07008
       O   -13.47519   -8.91019  -13.56151
      H1   -14.20847   -9.46583  -13.23623
       H    -7.73975  -14.95746  -13.67955
       O    -7.88361  -14.05773  -13.28117
      H1    -7.01017  -13.75398  -13.08015
       H    -9.92433  -12.62602   -9.81353
       O    -9.59658  -12.17715   -8.98926
      H1    -9.71711  -12.87759   -8.32197
       H   -13.76634  -16.60803  -14.42552
       O   -12.94464  -16.13651  -14.55346
      H1   -12.99287  -15.48642  -15.22452
       H    -9.83524  -15.62565   -8.06543
       O    -9.65323  -14.65514   -7.84074
      H1    -9.46698  -14.63497   -6.88446
       H   -17.62490  -13.69594  -17.57191
       O   -17.28051  -14.54178  -17.23946
      H1   -16.40352  -14.32082  -16.84746
       H    -7.48580  -10.78625  -14.20113
       O    -6.76795  -10.22020  -13.89778
      H1    -7.15876   -9.71926  -13.13704
       H   -14.27848  -11.07900  -16.32367
       O   -15.10061  -11.57145  -16.50345
      H1   -15.77265  -10.87486  -16.25776
       H    -8.72021  -13.31284  -14.76884
       O    -9.25639  -12.84337  -15.40297
      H1    -8.59629  -12.31608  -15.94530
       H   -16.38814  -10.28947  -18.25934
       O   -16.25454   -9.40714  -18.71173
      H1   -16.39050   -8.80449  -18.00538
       H   -16.44623  -14.41868  -11.88657
       O   -16.31053  -13.67800  -12.46584
      H1   -15.37417  -13.52516  -12.57740
       H   -14.88984  -12.86464  -15.33819
       O   -14.87544  -13.83135  -15.05479
      H1   -14.41886  -13.78724  -14.20212
       H   -13.26355   -8.37401   -9.61987
       O   -13.89889   -7.64268   -9.40458
      H1   -13.62315   -6.92559   -9.99089
       H   -20.16438  -13.32866  -15.94257
       O   -19.46706  -13.90981  -15.52360
      H1   -18.81093  -14.18546  -16.18390
       H   -12.61283   -8.73126  -16.52986
       O   -12.57451   -7.88665  -16.98029
      H1   -11.82035   -7.75183  -17.58768
       H   -10.30424   -6.52232  -13.29422
       O   -10.32814   -6.45913  -12.29457
      H1   -11.20350   -6.04691  -12.16100
       H   -11.54093  -10.17695  -19.90816
       O   -11.37329  -10.24084  -18.95708
      H1   -10.85559  -11.02071  -18.81552
       H   -18.41867  -11.94138  -18.89363
       O   -18.15555  -12.06044  -17.98274
      H1   -18.90955  -11.67409  -17.51926
       H   -15.93688  -10.95779  -11.72399
       O   -15.85298  -10.21475  -12.26396
      H1   -15.78168   -9.52202  -11.66161
       H    -9.99138   -9.59346  -11.83421
       O   -10.97115   -9.48224  -11.82106
      H1   -11.07851   -8.67238  -12.33929
       H   -15.18479  -14.02182  -19.11143
       O   -15.84765  -14.62136  -19.47051
      H1   -16.39726  -14.83189  -18.69046
       H   -10.85099   -8.79657   -7.89596
       O   -10.42868   -8.47188   -7.05909
      H1    -9.50165   -8.56614   -7.26194
       H   -14.94250   -5.98560  -17.10179
       O   -15.06851   -6.92921  -17.03213
      H1   -14.09719   -7.18488  -17.06410
       H   -18.61056  -12.92096   -9.65407
       O   -18.64285  -13.80704  -10.06313
      H1   -19.09343  -14.42845   -9.38652
       H   -12.89526  -13.06341  -13.05824
       O   -13.57040  -13.73432  -12.74843
      H1   -13.28629  -14.62121  -13.00794
       H   -11.79753   -7.09717  -15.67422
       O   -11.32649   -6.66385  -14.92898
      H1   -10.47222   -6.41838  -15.36573
       H   -17.64869  -16.02425  -12.59028
       O   -17.87421  -16.07450  -13.56406
      H1   -17.93902  -15.14598  -13.86444
       H   -15.05062   -7.39150  -10.60617
       O   -15.61513   -6.74332  -11.12980
      H1   -16.47556   -7.22136  -11.22640
       H   -18.61668  -12.71878  -14.40268
       O   -18.23682  -11.95917  -13.85659
      H1   -17.54105  -12.38095  -13.35403
       H   -10.36601  -17.80982  -18.01995
       O   -10.48769  -16.87123  -18.05206
      H1    -9.59550  -16.49946  -18.30799
       H   -13.65290  -19.29108  -11.53276
       O   -14.61076  -19.10949  -11.71423
      H1   -14.72292  -18.56445  -12.48566
       H    -7.31500  -13.61788  -10.21910
       O    -7.48916  -14.34132   -9.63379
      H1    -8.29654  -14.19784   -9.18025
       H   -12.75148  -13.17344   -7.55725
       O   -12.30486  -14.05898   -7.57931
      H1   -11.30335  -13.77840   -7.60607
       H   -17.58443  -10.46282  -15.04083
       O   -17.11351   -9.86764  -15.59660
      H1   -17.14917   -9.04056  -15.11192
       H   -11.01367  -16.71066  -14.11586
       O   -10.38623  -17.22237  -13.57037
      H1    -9.51919  -16.92895  -13.89176
       H   -11.54710   -9.81500  -10.05716
       O   -11.75198   -9.64419   -9.12054
      H1   -12.28327  -10.43176   -8.81987
       H   -13.73230  -12.10680   -8.90845
       O   -13.37871  -11.52533   -8.24549
      H1   -14.15914  -11.24786   -7.70313
       H   -11.50448  -18.46298  -11.40562
       O   -11.88434  -19.29371  -11.12700
      H1   -11.14033  -19.88119  -11.06425
       H   -18.76381  -18.35592  -15.62748
       O   -18.36048  -17.53074  -15.93858
      H1   -18.18460  -16.93477  -15.20358
       H   -15.48769  -18.53907  -14.62545
       O   -15.35082  -17.75402  -14.11447
      H1   -16.24479  -17.45832  -13.96917
       H   -15.28745  -17.88825   -8.85359
       O   -15.91092  -17.95196   -9.55729
      H1   -15.40730  -18.28767  -10.25646
       H    -6.63630  -12.44554  -17.15723
       O    -7.28782  -11.75335  -16.81730
      H1    -7.21478  -11.03803  -17.47948
       H    -7.33576  -10.09958   -7.56587
       O    -7.37926  -11.00769   -7.81501
      H1    -8.19399  -11.13373   -8.37262
       H   -13.86112  -14.04123  -10.59054
       O   -14.22330  -13.93191   -9.70320
      H1   -13.89167  -14.67364   -9.20830
       H   -16.70878  -11.10268   -7.10873
       O   -15.81995  -10.73948   -7.21199
      H1   -16.01972   -9.78336   -7.33082
       H   -11.96137  -10.66555  -16.94042
       O   -12.49812  -10.42695  -16.15787
      H1   -12.04631  -10.92324  -15.46852
       H   -14.01750   -7.10980  -13.70708
       O   -14.37372   -6.26865  -13.41975
      H1   -14.94658   -6.32615  -12.60922

