174
frame 0 | Written by MDAnalysis XYZWriter (release 2.4.3)
       H   -16.10579    6.04710    7.82897
       O   -15.38170    5.36409    7.95221
      H1   -14.84145    5.47625    8.77157
       H   -12.53385   -0.39926    5.52404
       O   -13.43936   -0.40067    5.86317
      H1   -13.89144    0.35281    5.45272
       H   -16.87246    3.42592    7.56247
       O   -17.18463    2.62296    7.17078
      H1   -17.96190    2.35766    7.61878
       H    -6.83146   -4.69838    5.73485
       O    -7.77100   -4.78291    5.80449
      H1    -8.13918   -4.56671    4.96934
       H    -9.76672   -1.89735    1.84934
       O    -8.83416   -2.07119    2.09226
      H1    -8.52570   -1.37350    2.68874
       H   -13.87888    5.24303   11.37488
       O   -13.98749    4.72683   10.56929
      H1   -14.15779    3.87802   10.94098
       H    -7.76078    3.34308    6.31266
       O    -7.21021    3.93314    5.73109
      H1    -7.72591    4.04247    4.90719
       H   -10.32636    6.71665    4.70982
       O    -9.47004    6.24998    4.72459
      H1    -9.26965    6.28185    5.68640
       H   -12.15996    4.38331    7.89592
       O   -11.89091    4.93731    8.60470
      H1   -12.52580    4.86308    9.32366
       H   -15.81512    2.14428    4.65018
       O   -16.12531    1.39361    5.10707
      H1   -16.55605    1.71294    5.92405
       H    -9.26408   -5.07585    2.82187
       O    -9.20123   -4.41820    3.51217
      H1    -9.21400   -3.60282    2.97181
       H   -12.76145    7.83666    7.35806
       O   -12.14618    7.70825    8.07969
      H1   -12.12732    6.71149    8.17834
       H   -11.98975    0.47552    2.41673
       O   -11.44300    1.30165    2.43411
      H1   -10.85653    1.05868    1.69604
       H   -13.66976   -0.99432    3.64388
       O   -13.41377   -0.97456    2.71581
      H1   -14.21349   -0.77895    2.21434
       H   -13.14196   -4.17477    9.59917
       O   -13.28805   -5.15293    9.33663
      H1   -12.65653   -5.17323    8.59269
       H   -10.79483   -1.68987    4.56123
       O   -10.98267   -0.77672    4.65791
      H1   -10.36129   -0.35708    4.05315
       H    -7.82076    1.38675   13.84899
       O    -8.49667    2.10219   14.02337
      H1    -8.53711    2.55393   13.14180
       H   -16.48116    1.08625    8.11515
       O   -16.30104    0.36890    8.72488
      H1   -16.25678   -0.47105    8.24780
       H   -10.66062   -4.02461    4.33986
       O   -11.13730   -3.45602    5.03603
      H1   -11.39304   -4.09504    5.78008
       H    -9.61844    7.79999    9.97889
       O    -8.91375    7.13067   10.00145
      H1    -8.07915    7.64528   10.18151
       H    -8.14804   -2.97007    6.14247
       O    -8.68016   -2.18448    6.34827
      H1    -9.60241   -2.37855    6.11140
       H    -7.90548    4.94484   10.79613
       O    -8.19783    4.38365   11.49136
      H1    -7.82150    4.81132   12.29951
       H   -14.31413    0.63710    9.58128
       O   -13.66599    1.28704    9.76574
      H1   -12.84871    0.81879    9.55589
       H    -4.74347    0.83057    7.36142
       O    -4.84214    0.04947    6.84876
      H1    -5.67888    0.09430    6.34942
       H   -12.23704    7.61502    4.11316
       O   -12.64553    6.68733    3.94157
      H1   -13.14190    6.58061    4.76639
       H    -7.50745    3.02067    1.97871
       O    -7.33945    2.15837    1.49321
      H1    -6.37956    2.22367    1.27987
       H    -8.55910    2.27637    8.52329
       O    -7.77595    2.17293    7.90631
      H1    -7.01230    2.48204    8.40543
       H   -12.98116    4.11427    1.04808
       O   -13.85388    3.75924    0.87304
      H1   -13.79399    2.81200    0.89522
       H   -13.64773   -5.95356    5.02277
       O   -14.16686   -5.21093    5.40336
      H1   -13.74024   -4.72024    6.16244
       H   -16.21966   -2.09950    6.85072
       O   -16.06027   -2.52336    7.74778
      H1   -15.05280   -2.55327    7.85253
       H   -10.51036    0.28944    6.04960
       O   -10.28708    0.82455    6.82779
      H1   -10.96030    1.48457    6.82058
       H    -8.15279    5.07104    7.13192
       O    -8.19505    6.03173    7.33355
      H1    -8.75900    6.08323    8.13670
       H   -10.77244   -1.29577    8.99137
       O   -11.28425   -0.42605    8.82455
      H1   -10.92905   -0.15310    7.98230
       H   -12.56871   -2.20364   10.87379
       O   -13.10829   -2.42794   10.13223
      H1   -14.00088   -2.65975   10.47194
       H   -13.88048    2.34637   12.84144
       O   -14.41072    2.26966   12.07417
      H1   -13.97957    1.81375   11.31584
       H    -7.60088   -1.54748   10.08140
       O    -7.52397   -2.53137   10.24718
      H1    -6.62838   -2.80552   10.46036
       H    -7.56023    0.18829    4.16154
       O    -7.77140    0.01691    3.25747
      H1    -7.38457    0.68498    2.69283
       H   -11.63082    4.97902    2.65424
       O   -11.46612    4.22371    2.06321
      H1   -11.78450    3.44049    2.56522
       H   -11.37642   -3.32459    1.37335
       O   -11.42517   -2.34920    1.33412
      H1   -12.17186   -2.14370    1.93484
       H   -16.47007   -0.48313    5.06612
       O   -16.71599   -1.40669    5.13026
      H1   -16.01987   -1.83669    4.62829
       H   -16.35111    3.64554    3.25648
       O   -15.39016    3.62168    3.54866
      H1   -14.89752    3.71295    2.72938
       H   -13.18912    1.83733    7.26112
       O   -12.55406    2.38264    6.81482
      H1   -13.15676    3.05075    6.42476
       H    -9.45975    3.10088   10.17138
       O    -9.96840    2.78042    9.39632
      H1   -10.53955    3.47077    9.09737
       H    -7.83002    0.86725    6.65078
       O    -7.55322    0.26888    5.95502
      H1    -8.01038   -0.57891    6.20307
       H   -14.69220    4.56276    6.48987
       O   -14.10322    4.38917    5.71588
      H1   -14.70049    4.21367    4.96816
       H    -9.02784    4.66238    3.50888
       O    -8.51821    3.94158    3.14617
      H1    -9.09896    3.15618    3.20331
       H    -9.83901   -2.26098   12.08427
       O   -10.59374   -1.82896   11.76883
      H1   -10.30457   -0.93317   11.73928
       H   -10.70158    1.07129   10.49364
       O   -10.48021    1.04602   11.47047
      H1   -11.12467    1.66078   11.88253
       H    -4.99902    4.13744    4.37597
       O    -4.20766    3.68857    4.71827
      H1    -3.60617    3.75577    3.96870
       H    -8.88113    0.22306   10.80324
       O    -8.07841    0.20933   10.21408
      H1    -8.30500    0.43048    9.29299
       H    -5.94384    1.55070   12.25685
       O    -6.25970    1.84040   11.37458
      H1    -6.75159    1.11863   11.15211
       H   -11.00694   -5.92681    6.45847
       O   -11.43359   -5.47225    7.22352
      H1   -10.63758   -5.13321    7.67225
       H   -13.50823   -2.05364    6.60178
       O   -13.55443   -2.82599    7.21856
      H1   -13.20209   -2.53164    8.06529
       H    -4.64464    2.83184    8.43997
       O    -5.49024    3.08397    8.96823
      H1    -5.44367    2.51007    9.75728
       H   -14.61637    6.86672    6.68200
       O   -14.17760    7.64247    6.33466
      H1   -14.90931    8.21456    6.23586
       H    -6.60150    6.72259    7.34280
       O    -5.97139    7.43723    7.45257
      H1    -5.12952    7.04393    7.23236
       H    -9.13730    0.22332   -0.40536
       O    -9.44587    1.08136   -0.16138
      H1    -8.74089    1.35971    0.43950
       H   -10.44948   -3.18900    9.93279
       O    -9.97737   -3.46427    9.16521
      H1    -9.10310   -3.15325    9.30985

