174
frame 7 | Written by MDAnalysis XYZWriter (release 2.4.3)
       H    -5.27916   -2.36651  -11.54906
       O    -4.39467   -2.38612  -11.11419
      H1    -3.73701   -2.29371  -11.81765
       H    -7.64159   -8.36252  -17.64333
       O    -7.91671   -9.29721  -17.66568
      H1    -7.86862   -9.64629  -18.52516
       H    -9.64482   -4.86603  -16.54749
       O    -9.93049   -5.74913  -16.78262
      H1   -10.32435   -5.59182  -17.63028
       H    -6.56917    0.75653  -15.66022
       O    -6.62197    1.45307  -14.97150
      H1    -6.95858    2.18420  -15.48899
       H    -3.76554   -2.11042  -18.19776
       O    -3.30310   -2.54000  -17.41354
      H1    -3.73294   -2.05619  -16.67322
       H     0.27173   -4.68458  -10.48051
       O    -0.13838   -3.85695  -10.61859
      H1    -0.76040   -3.69156   -9.86617
       H    -0.76386   -6.33522  -10.14047
       O    -1.63388   -6.73131   -9.89017
      H1    -2.30627   -6.04260  -10.11521
       H     3.54143   -3.87758  -18.80961
       O     4.20507   -4.50829  -18.56581
      H1     4.53090   -4.94830  -19.36531
       H    -7.94184   -9.43647  -15.89182
       O    -7.92820   -9.40352  -14.89570
      H1    -8.12479   -8.49444  -14.63428
       H     1.47762    3.43744  -15.13992
       O     0.95070    4.00203  -14.48783
      H1     0.82953    3.36388  -13.75375
       H    -4.57651   -0.10117  -15.50957
       O    -4.79374   -1.05275  -15.49726
      H1    -5.29778   -1.27473  -14.65186
       H     0.57294    3.73831  -17.99744
       O     1.02366    3.72811  -18.85975
      H1     1.58087    4.50863  -19.08466
       H    -7.19440    0.52180  -11.09392
       O    -7.63144   -0.33252  -11.05248
      H1    -8.55238   -0.05157  -10.98000
       H    -7.38436   -3.18773  -18.06118
       O    -7.65411   -3.35112  -19.00569
      H1    -7.09436   -4.12151  -19.28719
       H    -2.49460    1.83954  -19.26675
       O    -3.46881    1.82769  -19.32657
      H1    -3.70767    2.58929  -18.79382
       H     0.65103   -0.43161  -15.29282
       O     1.07986   -0.38760  -16.12134
      H1     1.35178    0.53500  -16.25517
       H    -7.29525   -2.75199  -13.27774
       O    -6.70624   -2.01767  -13.36810
      H1    -6.93448   -1.44122  -12.63020
       H    -9.75951   -2.32413  -16.26673
       O    -9.28906   -2.95596  -15.76343
      H1    -9.72264   -3.01337  -14.92553
       H    -2.22521   -4.55863  -15.09351
       O    -2.96282   -4.81186  -15.69378
      H1    -3.47122   -4.07188  -16.10836
       H     1.04658    2.39967  -11.82176
       O     0.22515    2.81993  -12.06093
      H1    -0.29488    2.17606  -12.55310
       H    -6.36143   -6.86205  -17.00152
       O    -7.24581   -7.00932  -16.73369
      H1    -7.77769   -6.30361  -17.07485
       H     0.54834   -0.31463  -10.67635
       O     1.45725   -0.55019  -10.93135
      H1     1.89863    0.29502  -11.15879
       H    -3.42679   -9.37950  -17.27258
       O    -3.23422   -9.81859  -16.43510
      H1    -3.72089   -9.37015  -15.75315
       H     0.07721   -7.04977  -13.29502
       O     0.86567   -6.47963  -13.21869
      H1     1.51901   -6.90205  -13.81109
       H    -6.05560   -9.48665  -14.64812
       O    -5.17555   -9.33743  -14.35054
      H1    -5.04255   -8.39296  -14.07141
       H    -3.75310   -9.34644  -19.68296
       O    -4.17545   -8.82856  -18.99046
      H1    -4.99934   -8.45586  -19.37878
       H    -9.70574    0.02664  -19.35365
       O    -9.29746    0.84899  -19.04980
      H1    -9.73467    1.11481  -18.21111
       H    -8.11257    0.05169  -18.22237
       O    -7.44091   -0.34031  -17.59725
      H1    -6.98322   -1.07995  -17.93489
       H    -2.63831    1.16553  -13.07943
       O    -1.90152    1.19468  -13.66216
      H1    -1.55183    0.26752  -13.58300
       H    -1.55307    4.07502  -16.74352
       O    -0.57457    3.99927  -16.74042
      H1    -0.18513    3.92745  -15.83733
       H     0.77157   -0.85215  -12.63749
       O     0.34060   -0.91306  -13.48367
      H1    -0.45619   -1.43220  -13.24046
       H    -8.50820    0.21368  -13.78016
       O    -9.32104    0.53382  -13.45118
      H1    -9.22807    1.39285  -13.04703
       H    -3.63129    1.96004  -10.62519
       O    -3.62504    2.21832  -11.55539
      H1    -4.58110    2.27691  -11.56495
       H    -7.52316    4.74840  -16.57140
       O    -7.54781    3.85787  -16.15909
      H1    -8.42101    3.46223  -16.29324
       H    -1.43224    0.04547   -9.19739
       O    -1.12725   -0.31682  -10.03238
      H1    -1.15101   -1.23301   -9.90318
       H    -0.66111   -5.54621  -17.86865
       O    -0.99876   -4.69122  -17.55444
      H1    -1.72507   -4.82816  -16.95975
       H    -2.72760    0.59634  -16.67834
       O    -3.24160    1.16001  -16.06974
      H1    -2.71740    1.20642  -15.22825
       H    -3.34840    2.80682  -16.58945
       O    -3.27564    3.71523  -16.95111
      H1    -3.79746    4.36654  -16.48368
       H    -0.78254   -0.58911  -17.16706
       O    -1.57465   -0.35430  -17.60112
      H1    -2.26168   -0.98961  -17.55942
       H    -4.88567   -4.82573  -10.52501
       O    -4.52635   -5.64520  -10.80510
      H1    -4.78566   -5.76826  -11.73809
       H    -3.70899   -6.34147  -13.52872
       O    -4.65448   -6.49051  -13.39542
      H1    -5.23333   -5.97800  -13.98577
       H     0.55225   -6.93282  -19.74310
       O     0.22819   -7.80571  -19.43324
      H1     1.02309   -8.42099  -19.44460
       H    -5.73847    1.07410  -19.47700
       O    -6.29217    1.84251  -19.71162
      H1    -7.20500    1.58084  -19.57573
       H     0.75750   -2.91824  -18.97397
       O     1.66386   -2.96403  -18.66898
      H1     1.73271   -2.28036  -18.01377
       H    -1.44784   -3.04323  -11.98687
       O    -1.74143   -2.68611  -12.81235
      H1    -1.26362   -3.32070  -13.43787
       H    -9.13919   -4.10744  -12.51535
       O    -8.19338   -4.18179  -12.60583
      H1    -7.93874   -4.56400  -13.47437
       H    -5.80218   -0.13519   -9.55280
       O    -4.89983    0.05237   -9.85545
      H1    -4.71360   -0.65401  -10.42633
       H    -7.48122   -2.86650  -16.02693
       O    -6.62372   -3.17955  -16.35683
      H1    -5.96159   -2.38168  -16.18472
       H    -3.94738   -5.91758  -17.10817
       O    -4.67107   -6.51609  -17.43641
      H1    -4.25738   -7.26882  -17.81731
       H    -6.62584   -4.45625  -15.19716
       O    -6.80999   -5.24001  -14.64214
      H1    -6.90870   -5.94429  -15.30408
       H     2.90900    1.77578  -15.33702
       O     2.13352    1.96314  -15.92699
      H1     2.41136    2.67108  -16.55396
       H     1.53047   -7.54616  -16.57202
       O     0.89164   -7.15351  -15.96062
      H1     0.99553   -6.19957  -15.94115
       H     2.19821   -3.42355  -15.84953
       O     1.75606   -4.25240  -16.01478
      H1     1.37339   -4.02915  -16.90589
       H     2.35315   -1.02850  -15.09245
       O     3.02942   -1.70180  -14.87800
      H1     2.92063   -1.74210  -13.88551
       H    -2.07452   -7.39716  -12.23600
       O    -1.76250   -7.33126  -13.14627
      H1    -1.61834   -8.22493  -13.49189
       H    -0.15566   -4.86049  -13.81148
       O    -0.51119   -4.39635  -14.58674
      H1     0.28062   -4.09936  -15.06604
       H     0.70627   -9.95471  -14.84724
       O     0.32114   -9.31915  -14.25259
      H1     0.38244   -8.48756  -14.79852
       H     3.80614   -1.52038  -16.72448
       O     3.84704   -1.34675  -17.65499
      H1     4.02006   -0.39781  -17.82479

