174
frame 1 | Written by MDAnalysis XYZWriter (release 2.4.3)
       H     9.50885   15.77764    2.05539
       O     8.74397   16.38370    1.83546
      H1     7.98407   16.06778    2.35181
       H    -0.13931   15.64382   -2.67453
       O    -0.84662   15.75213   -2.00094
      H1    -1.48056   16.42963   -2.29427
       H     1.89799    9.92808   -1.73347
       O     2.15840    8.97683   -1.80426
      H1     2.82839    8.85206   -1.12909
       H    -2.30851   13.00814    3.58600
       O    -2.51210   13.88851    3.22436
      H1    -3.38861   13.80912    2.81266
       H     6.37203   13.27666   -1.42306
       O     5.84608   13.52390   -2.15678
      H1     6.25015   13.13318   -2.97641
       H     1.57451   19.04021    1.67166
       O     1.52059   18.10216    1.80270
      H1     0.71128   17.81397    1.30178
       H     6.82693   11.79005    4.02441
       O     7.27590   11.30220    3.34420
      H1     6.63158   11.20938    2.63410
       H     6.43621   13.08287   -5.16184
       O     7.19803   12.76061   -4.58663
      H1     7.08296   11.82559   -4.36046
       H    -2.33487   16.65741    3.59928
       O    -2.00558   16.91947    2.71618
      H1    -1.89719   17.88567    2.84386
       H     0.48148   11.92154   -0.63748
       O     1.30895   11.53819   -1.02071
      H1     1.88651   12.26895   -1.12116
       H     3.37149   20.05483    5.63680
       O     3.27498   19.10037    5.49809
      H1     4.16705   18.78503    5.19979
       H     8.58701   10.07384   -1.45125
       O     7.76241   10.48900   -1.52922
      H1     7.60469   10.47965   -2.45040
       H     2.98932   18.50167    7.13205
       O     2.89552   17.98642    8.00667
      H1     2.01716   18.35930    8.40002
       H     1.00439    7.31024    1.54393
       O     1.91389    7.11638    1.81710
      H1     2.21612    7.89491    2.24657
       H     9.73178   11.46349    1.32768
       O    10.32138   11.14723    0.63084
      H1    10.26004   11.80097   -0.07959
       H     2.29125   14.68381    7.25489
       O     2.79693   15.23597    7.85373
      H1     2.59314   16.14748    7.68287
       H     6.15294   16.97900   -2.58276
       O     6.92682   17.60546   -2.41044
      H1     7.57982   17.52838   -3.07524
       H     2.35113   16.95350   -1.11078
       O     2.40989   17.18988   -2.05195
      H1     2.46712   18.17275   -2.04993
       H     1.46456   17.85822    3.73276
       O     1.39725   17.44914    4.57718
      H1     2.19276   17.85818    5.02164
       H     3.49552   14.86510    1.26139
       O     3.52950   15.43290    0.39687
      H1     3.95751   16.28421    0.57497
       H     3.44190    7.50217    0.49794
       O     4.04897    8.03328    0.00250
      H1     4.36733    7.50439   -0.74021
       H     7.91810   16.15383   -1.33202
       O     8.45457   15.71014   -0.68878
      H1     8.19562   16.17290    0.13028
       H     1.48340   13.26496    5.81744
       O     1.21376   13.49253    6.67959
      H1     1.40454   12.79234    7.31664
       H    -0.66815   14.59724    2.67937
       O     0.26720   14.62764    2.55974
      H1     0.57248   15.45835    2.88000
       H     0.08821   13.88539    0.46073
       O    -0.50616   13.26348    0.00974
      H1    -0.73432   13.84539   -0.75421
       H     5.51971   18.51427   -1.32972
       O     5.00017   18.88215   -0.62228
      H1     4.16951   18.83274   -1.11142
       H     5.37619    9.09618    0.45333
       O     6.15805    9.59512    0.75060
      H1     6.67657    9.90169    0.01937
       H     1.93129   11.51151   -6.52353
       O     2.09042   11.43305   -5.52379
      H1     1.63827   12.21676   -5.14662
       H     8.98171   19.41707    3.42565
       O     8.31796   19.64054    4.08989
      H1     8.35100   18.89781    4.76057
       H     3.52092    8.81151    3.24431
       O     2.65489    9.22828    3.26963
      H1     2.53881    9.96056    2.71582
       H    -1.28128   17.11451    0.65927
       O    -0.54791   17.32361    0.08407
      H1    -0.55317   16.66766   -0.61992
       H     8.81603   15.32090    6.28000
       O     8.96332   15.54174    5.34179
      H1     8.09664   15.62047    4.88399
       H     4.00507   16.43255   -2.55251
       O     4.79407   15.99984   -2.92105
      H1     4.95044   15.13763   -2.43914
       H     5.49861   16.27925    3.37640
       O     6.27298   15.67027    3.60850
      H1     5.81149   14.80055    3.67386
       H    -1.64373   10.97412    4.96430
       O    -1.18677   11.16894    4.17291
      H1    -1.29753   10.29374    3.65712
       H     4.15810   12.03045    3.51887
       O     4.45011   11.43892    4.22360
      H1     3.83467   10.68458    4.16858
       H    11.17376   13.66976   -0.31177
       O    10.42329   13.48679   -0.84082
      H1     9.76627   14.16012   -0.57748
       H    -4.32029   12.57798    0.84212
       O    -3.69506   12.12241    0.23732
      H1    -2.86639   12.62524    0.33577
       H     5.11084   19.14223   -5.61133
       O     5.24164   18.34121   -5.07248
      H1     4.34067   18.02189   -4.81931
       H    -1.23348   19.12239   -0.02563
       O    -1.88848   19.71918   -0.43170
      H1    -2.38901   20.14550    0.28668
       H     1.83817   11.91525    2.15738
       O     2.46290   11.44649    1.56748
      H1     1.99322   11.44254    0.66039
       H     4.66061   12.02469    5.98125
       O     4.78294   12.12891    6.90276
      H1     5.58059   11.61667    7.03433
       H     5.90160   19.74796    1.73434
       O     5.53412   19.40529    2.55950
      H1     6.28676   19.04533    3.01905
       H     1.72492   14.11588   -3.36931
       O     0.94411   14.09466   -3.94446
      H1     1.09846   14.72450   -4.59919
       H     9.90086   18.34697    0.63947
       O    10.40663   19.19837    0.53966
      H1     9.64543   19.83841    0.54173
       H     4.55136   18.03371    2.70013
       O     4.05303   17.21678    2.83669
      H1     3.22210   17.34550    2.41468
       H     5.13858   13.97065    6.44838
       O     5.14282   14.97367    6.51997
      H1     4.46559   15.12399    7.26061
       H     3.97209   14.87858   -4.48249
       O     4.03572   14.73490   -5.45162
      H1     3.98054   13.82055   -5.73188
       H     0.52620   11.77190    4.00760
       O     1.33593   12.32042    3.94449
      H1     0.97825   13.13318    3.46070
       H     0.00257   17.57988    5.28868
       O    -0.86053   17.60855    5.81344
      H1    -1.47360   16.84730    5.63897
       H     7.60139   13.59933    0.61158
       O     6.63568   13.70093    0.44852
      H1     6.55246   14.67432    0.50110
       H    -0.27666   12.77313   -4.06846
       O    -0.80746   12.06789   -4.56719
      H1    -1.18633   11.47944   -3.83408
       H     2.95430   14.31217   -1.16304
       O     2.97701   13.52241   -1.73516
      H1     3.91702   13.42662   -2.03029
       H     5.74146    7.54881    3.16932
       O     5.01586    7.78299    2.60868
      H1     5.29935    8.22635    1.79452
       H     5.83811   16.93118    5.72234
       O     5.87517   17.87685    5.51513
      H1     6.05080   18.38630    6.32118
       H     9.47079   13.48481    3.04289
       O     8.92251   13.18226    2.32471
      H1     8.35698   12.55593    2.78838
       H    -3.83361   15.96904    5.43223
       O    -2.91875   15.72151    5.30767
      H1    -2.85585   14.96535    4.63281
       H     5.24984   13.34939    1.64282
       O     4.41143   13.34356    2.13539
      H1     3.84344   12.72345    1.64402

