174
frame 1 | Written by MDAnalysis XYZWriter (release 2.4.3)
       H    -6.92956    5.66922  -17.85782
       O    -6.22968    5.56755  -17.21147
      H1    -5.35238    5.30413  -17.65901
       H    -6.96365    6.66656   -8.46610
       O    -7.52548    7.04962   -7.73680
      H1    -8.40263    6.69214   -7.75489
       H   -10.39522   -0.57420   -9.04791
       O   -10.36746    0.24325   -9.62317
      H1   -10.98560    0.05245  -10.37215
       H   -10.20189    5.83703   -7.84641
       O    -9.97899    5.98202   -8.77262
      H1    -9.80838    5.11163   -9.09105
       H   -14.78073   -0.13439  -12.17384
       O   -14.20470    0.51320  -12.57651
      H1   -14.36040    0.28253  -13.51905
       H    -9.12746   -1.57939   -7.65802
       O    -9.41596   -2.13705   -8.41563
      H1    -8.73085   -2.03545   -9.14785
       H    -7.62319   -1.66047  -16.76195
       O    -8.43438   -2.07749  -17.20397
      H1    -9.21102   -1.50116  -17.07663
       H   -12.33344    1.32767  -15.06636
       O   -13.31001    1.52316  -15.30746
      H1   -13.37450    2.35233  -14.81784
       H   -14.32583   -0.89109  -10.05988
       O   -14.24566   -1.85440   -9.99042
      H1   -14.26153   -2.17687  -10.88299
       H    -9.77466    3.65271   -5.90151
       O    -9.33015    2.81846   -6.04979
      H1   -10.00407    2.13341   -5.93890
       H    -3.60619    5.94039  -11.32539
       O    -4.19141    5.23893  -11.62971
      H1    -4.82216    5.62601  -12.27434
       H   -15.21821   -0.30651  -17.37776
       O   -14.30341   -0.31612  -17.17509
      H1   -14.22806    0.40853  -16.56761
       H   -14.65133    2.08647  -12.01295
       O   -15.20108    2.62458  -11.34793
      H1   -16.10820    2.47996  -11.64911
       H   -14.01340    8.57174  -12.01169
       O   -13.69503    7.66861  -12.23553
      H1   -12.79185    7.84047  -12.54742
       H    -6.36728    4.24056  -14.42823
       O    -6.13155    5.14492  -14.17036
      H1    -5.19463    5.24259  -14.35097
       H   -12.74025    1.71334   -8.43636
       O   -11.94654    1.68187   -7.82023
      H1   -11.23978    1.48378   -8.42341
       H    -5.83701    2.09421   -7.35518
       O    -5.60678    1.13432   -7.12207
      H1    -5.27292    1.14051   -6.25084
       H   -10.85033    6.46985  -12.98394
       O   -11.01566    6.34449  -12.05557
      H1   -10.25644    6.28055  -11.48411
       H   -12.38534   -0.06540  -11.94427
       O   -11.42536   -0.25440  -12.14007
      H1   -11.28560   -0.08983  -13.07934
       H   -14.38259    3.70738  -10.32435
       O   -13.80842    4.31941   -9.81972
      H1   -13.97619    5.24723  -10.05809
       H    -7.64517    1.27717  -11.05649
       O    -8.13561    0.53461  -11.38831
      H1    -8.90048    0.52092  -10.86149
       H    -7.77092    3.41910   -7.10137
       O    -6.87425    3.68737   -7.41979
      H1    -6.56385    4.24013   -6.68409
       H   -13.92591    5.59008   -6.94485
       O   -13.58124    4.63674   -6.93376
      H1   -13.34198    4.38732   -7.84495
       H    -7.48334    6.76983  -14.23739
       O    -8.23148    7.39025  -14.08467
      H1    -8.43038    7.29174  -13.14407
       H   -12.51486    3.80941  -11.04089
       O   -11.80129    3.63675  -11.69964
      H1   -11.33422    4.49637  -11.86679
       H    -9.72064    3.38011  -10.79821
       O    -9.10086    3.40671  -10.03682
      H1    -9.36683    2.68756   -9.45107
       H   -12.91215    7.19151  -10.52718
       O   -12.83875    6.96700   -9.60463
      H1   -11.91641    6.78120   -9.48083
       H    -7.43135   -2.77754  -10.74642
       O    -7.46988   -1.94982  -10.24952
      H1    -7.72730   -1.30478  -10.96486
       H   -11.33105   -2.15818  -12.06301
       O   -10.87185   -3.02119  -11.95590
      H1   -11.16691   -3.57358  -12.67680
       H    -8.19443   -0.68171  -12.86573
       O    -8.34689   -1.57439  -13.20912
      H1    -8.83504   -2.07084  -12.55323
       H    -9.71955    3.82568  -16.38817
       O    -9.43552    2.98773  -15.99107
      H1    -9.41145    3.16891  -15.02179
       H   -10.74189    1.13373  -19.60943
       O   -11.16643    1.85599  -19.11635
      H1   -10.47732    2.53125  -19.00107
       H   -14.39431    1.48742  -10.26981
       O   -14.26724    0.89901   -9.48779
      H1   -14.95364    1.17148   -8.87755
       H    -5.72127   -0.43891  -17.27225
       O    -6.00482   -0.86175  -16.50611
      H1    -6.10278   -0.15211  -15.88346
       H    -3.00976    2.13856  -11.90020
       O    -2.55778    3.06748  -11.88101
      H1    -3.23881    3.74124  -11.62717
       H   -13.91427    4.69834  -13.74822
       O   -13.32008    3.94894  -13.99103
      H1   -12.75209    3.68131  -13.23103
       H    -3.21054   -0.77013  -12.19016
       O    -2.72960    0.03379  -11.87369
      H1    -2.24291   -0.43744  -11.11865
       H    -6.86633   -0.04115   -6.64265
       O    -7.71138   -0.47453   -6.49023
      H1    -7.48461   -1.25713   -5.92917
       H    -9.23793    2.27517  -12.27337
       O    -9.54134    2.50561  -13.14251
      H1   -10.49955    2.30127  -13.17902
       H   -11.33121   -2.64347   -8.79854
       O   -12.26667   -2.78662   -8.46358
      H1   -12.90457   -2.23893   -8.97861
       H    -3.22177    4.56034  -16.18810
       O    -3.45991    4.52012  -15.23363
      H1    -2.60162    4.41744  -14.80472
       H    -4.07487    1.14703   -9.88514
       O    -4.19020    2.06243   -9.62116
      H1    -5.07211    2.46269   -9.89540
       H    -6.37745    4.06749  -16.07496
       O    -6.60888    3.15482  -15.85495
      H1    -7.57931    2.98864  -16.11462
       H    -9.51923    8.22932  -15.30262
       O   -10.33726    8.49779  -15.67077
      H1   -10.96111    7.86624  -15.34645
       H    -2.93733    1.67299  -15.84816
       O    -3.81957    1.99407  -15.66616
      H1    -3.73029    2.87606  -15.33505
       H    -5.39203    5.78647  -10.02136
       O    -6.24249    5.61566   -9.61074
      H1    -6.08507    4.92860   -8.93724
       H   -13.44121   -2.13318  -14.70294
       O   -12.87975   -2.61231  -15.36760
      H1   -12.29918   -3.21271  -14.83732
       H   -11.50399   -0.90874  -17.69868
       O   -11.14657   -1.26616  -16.91649
      H1   -11.92811   -1.71310  -16.50070
       H   -13.32579    3.82365  -17.47846
       O   -12.38489    3.80303  -17.45965
      H1   -12.10388    2.95790  -17.84074
       H    -9.31036   -4.22547  -11.45536
       O    -8.44304   -4.63367  -11.50238
      H1    -8.55533   -5.51534  -11.09334
       H    -7.43760    6.52183  -10.76299
       O    -8.28591    6.82170  -11.21460
      H1    -8.58720    7.59124  -10.83156
       H   -10.78407   -0.25851  -15.50515
       O   -10.77778    0.34859  -14.76665
      H1   -10.19262    1.01949  -15.10604
       H    -5.72577    0.08196   -8.92558
       O    -5.30568   -0.56587   -9.49680
      H1    -6.05358   -1.16854   -9.64124
       H    -6.58166   -2.19365  -13.00905
       O    -5.85312   -2.86132  -12.77382
      H1    -6.01029   -3.66389  -13.26884
       H   -11.78521    5.90112  -15.98166
       O   -12.02848    6.27324  -15.13887
      H1   -12.56421    5.55388  -14.80289
       H    -7.34396    3.21406  -10.49656
       O    -6.58948    2.63506  -10.63124
      H1    -6.29919    2.81846  -11.51610
       H   -10.41885   -0.54255   -4.80464
       O   -10.39047    0.16524   -5.45687
      H1    -9.49498    0.09156   -5.79151
       H    -5.55498    2.13023  -14.24121
       O    -5.71324    1.61512  -13.42990
      H1    -4.77273    1.35116  -13.30323

