174
frame 10 | Written by MDAnalysis XYZWriter (release 2.4.3)
       H     2.87633   15.92508  -11.70056
       O     2.20539   15.40901  -11.17892
      H1     1.50344   16.07523  -10.98469
       H     6.63031    9.86380  -12.77899
       O     7.51538   10.13357  -12.40844
      H1     7.24656   10.47914  -11.47226
       H    -4.18075   13.52840  -10.43675
       O    -4.17443   12.60774  -10.70737
      H1    -3.96685   12.56811  -11.64483
       H     2.73493    9.43099   -3.01649
       O     2.50953    9.56159   -3.97438
      H1     3.12410    8.91968   -4.46111
       H     3.65101    4.99639  -11.29180
       O     3.52563    4.04919  -11.02473
      H1     4.06488    4.00113  -10.19393
       H     3.32927   14.80008   -5.25236
       O     4.14767   15.20777   -4.92386
      H1     4.60290   15.56618   -5.69265
       H     5.42597   16.23432  -11.13703
       O     4.67601   16.55888  -11.70778
      H1     5.03665   17.19374  -12.31197
       H    -0.50639    8.77492   -6.07831
       O    -0.47536    8.38656   -6.95041
      H1    -0.97989    9.05278   -7.45643
       H     0.93129   15.55012  -13.65008
       O     0.84292   15.53595  -14.62660
      H1     0.89633   14.61185  -14.86809
       H     0.69174    4.86436   -8.03803
       O     1.49812    4.92167   -8.54885
      H1     1.29458    4.76503   -9.45799
       H     0.62420   12.25643  -11.73535
       O    -0.34659   12.26578  -11.50938
      H1    -0.66258   11.37882  -11.40361
       H     2.42797   13.85564  -12.09963
       O     2.40153   12.91660  -12.28477
      H1     2.19421   12.74307  -13.23292
       H     0.12982    6.47610  -14.05118
       O    -0.39723    6.48226  -13.23587
      H1     0.17322    6.05149  -12.58157
       H     4.24792    6.97905   -4.37678
       O     4.02036    7.63171   -5.02358
      H1     3.96292    7.20415   -5.89089
       H    -2.52052   12.94586  -13.52507
       O    -1.67731   13.47626  -13.45873
      H1    -1.06888   13.03451  -12.79690
       H     1.26892    8.43369  -11.20511
       O     1.29132    8.60360  -12.19138
      H1     0.46999    8.19199  -12.49543
       H     3.39724    9.95463  -10.16283
       O     4.16347    9.67884  -10.68635
      H1     4.93922   10.21485  -10.35170
       H     5.40294    3.76473   -8.45969
       O     4.61912    4.28064   -8.63388
      H1     4.05566    4.13139   -7.87077
       H     7.77417   15.42175   -9.81806
       O     7.06384   15.25556  -10.45450
      H1     7.49522   14.66409  -11.05522
       H     5.73244   13.53883  -12.88047
       O     5.34936   13.04847  -12.11386
      H1     4.43341   13.30062  -12.18029
       H     0.67448   14.35217   -6.05636
       O     0.24822   14.84033   -6.77066
      H1     0.40414   14.40015   -7.58017
       H     1.41919    6.60991   -8.64668
       O     1.70258    7.55042   -8.78509
      H1     1.23612    8.12017   -8.14523
       H     3.60786    7.01435  -11.25961
       O     3.79301    6.47366  -12.05692
      H1     2.99375    6.38410  -12.56414
       H     1.93501   10.66887   -5.32471
       O     1.82915   11.18530   -6.13468
      H1     0.88739   11.34370   -5.96315
       H    -0.47441   11.89916   -2.54726
       O    -0.89849   11.24498   -3.17274
      H1    -1.85250   11.20007   -2.88913
       H     4.35090   16.55772   -7.77938
       O     5.06772   16.07131   -7.44109
      H1     5.67957   16.82952   -7.10133
       H     7.87680    8.41319  -12.20186
       O     8.13314    7.48025  -12.36294
      H1     8.48569    7.47498  -13.29380
       H    -2.14030    9.75800  -10.64942
       O    -2.28589   10.48151  -11.22787
      H1    -2.82133   11.17029  -10.69650
       H     5.00679   11.04529   -2.94728
       O     4.92121   10.90053   -3.87355
      H1     4.07783   10.43447   -4.06582
       H     1.69837    4.48294  -11.16906
       O     0.87917    4.99246  -11.19272
      H1     0.43531    4.52000  -11.92768
       H    -1.61611   11.06218   -6.35377
       O    -1.17649   11.89905   -6.25923
      H1    -1.42560   12.33112   -7.11610
       H     6.31017   14.48085   -7.02941
       O     6.48283   13.87081   -6.25154
      H1     5.66630   13.84164   -5.79370
       H    -1.44879    7.35531  -10.63909
       O    -0.88790    7.99297  -10.20999
      H1    -0.30634    7.50699   -9.56592
       H    -3.44028   10.43349   -7.78818
       O    -2.69071    9.74330   -7.64853
      H1    -3.03131    9.07604   -7.09018
       H     8.61856    6.96043   -8.23556
       O     8.62784    7.80278   -8.66278
      H1     7.71312    8.13608   -8.46054
       H     6.49494    9.45694   -6.16164
       O     7.11263    9.92566   -5.57632
      H1     6.55504   10.34831   -4.94455
       H     6.87580   11.11402   -9.14335
       O     6.45498   11.07299  -10.01835
      H1     6.56002   11.93877  -10.35529
       H     0.65055   13.23402   -9.73701
       O     1.30117   13.56556   -9.08890
      H1     1.98156   13.87339   -9.76508
       H     5.49004    9.10263   -8.63852
       O     6.01848    8.61660   -7.95011
      H1     5.43511    7.92533   -7.70401
       H    -3.67129    7.61106  -10.21531
       O    -4.06043    7.80985   -9.38844
      H1    -3.29399    8.27531   -8.90680
       H     6.29481    7.14789   -5.24497
       O     7.29578    7.12506   -5.04049
      H1     7.55754    8.02362   -5.03898
       H     1.30946   13.63248   -3.85563
       O     1.71812   13.65079   -4.71126
      H1     2.32950   12.89204   -4.70775
       H     1.19790   12.63967  -15.78746
       O     1.04850   12.81231  -14.80260
      H1     0.46509   12.04175  -14.63819
       H     4.39809   11.90540  -13.52200
       O     4.38361   11.25975  -14.24319
      H1     4.94810   10.58780  -13.94547
       H     7.45989   12.49628   -6.85271
       O     7.93199   11.95055   -7.46876
      H1     8.21825   11.16997   -6.99945
       H     5.12334    8.01693  -12.91840
       O     5.21622    8.93477  -13.04560
      H1     4.77258    9.31306  -12.24290
       H    -2.52908   14.70822   -5.73267
       O    -2.33580   15.36105   -6.44910
      H1    -1.42241   15.13805   -6.65786
       H    -2.21260   15.29241  -12.49973
       O    -2.57961   15.84753  -11.76794
      H1    -2.00013   15.68089  -11.02478
       H    -2.28640    8.80632  -14.18881
       O    -2.41186    9.78055  -14.02219
      H1    -2.51307    9.92774  -13.07847
       H    -3.34722   13.59134   -3.80794
       O    -2.50140   13.76090   -4.28356
      H1    -1.96118   12.94127   -4.28482
       H    -1.14685    6.00888   -6.65457
       O    -0.96590    5.19002   -7.13591
      H1    -1.74110    5.16825   -7.70038
       H     3.22512    9.89579  -14.26445
       O     2.73183    9.08577  -14.46389
      H1     2.32090    8.80052  -13.65201
       H     2.10901   10.81568   -7.94219
       O     2.27493   10.82703   -8.88923
      H1     2.07634   11.73878   -9.06177
       H    -1.87056   12.86017   -9.68084
       O    -2.01908   13.20758   -8.75782
      H1    -2.52580   14.03269   -8.90779
       H    -0.79560   14.92261   -9.11648
       O    -0.85844   15.67126   -9.71143
      H1    -0.92809   16.42738   -9.13138
       H     4.08284    6.05304   -8.31663
       O     4.03987    6.79633   -7.75102
      H1     3.26068    7.28335   -8.07390
       H     0.88451    9.20807   -4.10148
       O    -0.03675    8.93546   -4.20595
      H1    -0.44718    9.75153   -4.03293
       H     0.47668   16.43419   -6.39882
       O     0.51115   17.43568   -6.44036
      H1    -0.08349   17.69785   -7.15259

