174
frame 1 | Written by MDAnalysis XYZWriter (release 2.4.3)
       H   -11.15111   17.69854   -1.03001
       O   -11.57412   17.57371   -0.18295
      H1   -10.94195   17.12048    0.41781
       H    -2.38794   18.08684   -3.45813
       O    -2.57694   17.81131   -2.54773
      H1    -2.23548   18.55270   -2.02853
       H    -0.13931   15.64382   -2.67453
       O    -0.84662   15.75213   -2.00094
      H1    -1.48056   16.42963   -2.29427
       H    -2.30851   13.00814    3.58600
       O    -2.51210   13.88851    3.22436
      H1    -3.38861   13.80912    2.81266
       H     1.57451   19.04021    1.67166
       O     1.52059   18.10216    1.80270
      H1     0.71128   17.81397    1.30178
       H    -4.81577   18.85799    5.48544
       O    -5.73192   18.79198    5.14320
      H1    -5.62206   18.59068    4.18084
       H    -7.58005   16.25908    5.42282
       O    -8.44545   16.45124    5.10978
      H1    -8.56603   15.80979    4.41756
       H   -10.33567   15.81366   -9.68087
       O   -10.98847   15.44371  -10.31161
      H1   -10.97871   16.00755  -11.06756
       H   -13.30026   16.58736   -0.00549
       O   -14.08335   16.04379   -0.06639
      H1   -14.50049   16.56712   -0.76010
       H    -3.52436    9.18346   -4.79151
       O    -3.61733    9.86283   -4.15474
      H1    -4.31147    9.48753   -3.65981
       H    -7.29458   11.10823   -4.89474
       O    -7.91003   11.78480   -5.22313
      H1    -8.34329   11.54862   -6.09275
       H    -9.24756   11.22732   -0.46187
       O   -10.14499   11.27078   -0.77868
      H1   -10.18071   10.69588   -1.55892
       H    -2.33487   16.65741    3.59928
       O    -2.00558   16.91947    2.71618
      H1    -1.89719   17.88567    2.84386
       H    -2.75251   19.13757  -10.19292
       O    -2.70406   18.59444   -9.40499
      H1    -3.61440   18.69324   -9.06090
       H    -2.26249   18.95298   -5.40788
       O    -1.54896   18.47571   -4.87835
      H1    -0.86830   19.13336   -4.65847
       H   -11.76218   18.95861    0.97678
       O   -11.93718   19.74336    1.47590
      H1   -11.65117   19.68874    2.38655
       H   -13.57519   17.41266   -5.48566
       O   -13.41240   17.70415   -4.55941
      H1   -13.02632   16.94968   -4.12541
       H    -8.27716   13.50050    2.30875
       O    -7.42588   13.38732    1.88194
      H1    -7.69088   13.36852    1.00682
       H   -10.89673   16.51309   -6.46030
       O   -11.59002   15.92608   -6.80585
      H1   -12.27440   16.47707   -7.16365
       H    -9.58117   18.20965    4.32222
       O    -9.98087   19.02213    3.94024
      H1   -10.25399   19.49863    4.72245
       H    -1.48469   12.85911   -6.16157
       O    -1.12468   12.97592   -7.05391
      H1    -1.59117   12.42005   -7.67674
       H    -2.13116   10.30569   -1.64521
       O    -1.68540   10.58306   -2.42938
      H1    -2.33549   10.33362   -3.13066
       H    -9.33603   17.70789   -5.68985
       O    -9.54064   16.89457   -5.28647
      H1    -8.79619   16.29205   -5.42003
       H    -7.00235   19.39511   -9.09607
       O    -7.71421   19.59631   -9.64759
      H1    -8.47134   19.06678   -9.45590
       H    -8.41327   17.59489   -2.15759
       O    -7.87924   16.78955   -2.05454
      H1    -8.38544   16.07166   -2.41029
       H    -4.41194   15.81213   -5.41387
       O    -5.07633   16.50663   -5.54185
      H1    -5.17667   16.85995   -4.59494
       H    -4.30348   11.66264   -4.74665
       O    -4.67847   12.52374   -4.90005
      H1    -5.30740   12.36874   -5.66879
       H    -0.66815   14.59724    2.67937
       O     0.26720   14.62764    2.55974
      H1     0.57248   15.45835    2.88000
       H    -8.53615   15.43823   -7.93483
       O    -8.47517   15.94501   -8.77186
      H1    -8.18075   15.24717   -9.38539
       H   -10.42174   12.98815   -0.95854
       O   -10.45765   13.94870   -1.07494
      H1   -10.02568   14.12312   -1.93689
       H     0.08821   13.88539    0.46073
       O    -0.50616   13.26348    0.00974
      H1    -0.73432   13.84539   -0.75421
       H   -11.89397   15.36003   -4.85280
       O   -12.04260   15.41628   -3.88793
      H1   -12.82106   14.87766   -3.85556
       H   -10.61037   17.42206   -3.45056
       O   -10.55585   17.87937   -2.62813
      H1    -9.99967   18.62810   -2.91328
       H    -7.31877   14.43599   -5.60032
       O    -7.54781   15.25591   -6.05213
      H1    -6.81756   15.85658   -5.85533
       H    -5.89991   14.69233    2.22940
       O    -4.98899   14.99931    1.97847
      H1    -5.10098   15.94089    1.69763
       H    -5.25982   12.51946    3.54296
       O    -5.32677   11.78064    2.90261
      H1    -6.10974   12.05677    2.43437
       H    -6.62129   10.75126   -1.24571
       O    -7.32928   10.61244   -0.57622
      H1    -7.10754    9.88599   -0.02897
       H    -1.28128   17.11451    0.65927
       O    -0.54791   17.32361    0.08407
      H1    -0.55317   16.66766   -0.61992
       H   -10.12309   13.92641    3.44190
       O    -9.36277   14.57800    3.40209
      H1    -9.62979   15.05520    2.59621
       H   -10.35787   10.63343   -7.45045
       O    -9.70585   11.38722   -7.49858
      H1   -10.31786   12.13159   -7.59876
       H    -4.32029   12.57798    0.84212
       O    -3.69506   12.12241    0.23732
      H1    -2.86639   12.62524    0.33577
       H    -1.23348   19.12239   -0.02563
       O    -1.88848   19.71918   -0.43170
      H1    -2.38901   20.14550    0.28668
       H   -11.69249   12.90803   -8.62698
       O   -11.68960   13.19478   -7.70358
      H1   -11.49765   14.12292   -7.61548
       H    -5.27293   12.20162   -3.11114
       O    -5.67550   11.88919   -2.30712
      H1    -4.91609   11.86383   -1.70805
       H     1.72492   14.11588   -3.36931
       O     0.94411   14.09466   -3.94446
      H1     1.09846   14.72450   -4.59919
       H    -6.57973   17.78917    1.78703
       O    -5.73903   17.96421    2.35060
      H1    -5.35792   18.71773    1.82949
       H    -4.66136   17.85298   -2.89042
       O    -5.53837   17.98122   -3.28163
      H1    -6.18123   17.34991   -2.89259
       H    -6.89578   13.41337   -7.79806
       O    -6.04082   13.05474   -7.63115
      H1    -6.17564   12.09823   -7.93235
       H   -12.21612   13.89430   -1.06848
       O   -13.13433   13.59558   -1.15669
      H1   -13.56446   14.40357   -0.84815
       H    -1.10418   16.60471   -5.90140
       O    -0.61087   15.81702   -6.27873
      H1    -1.25929   15.11439   -6.41085
       H    -4.48971   19.63816   -5.54290
       O    -3.92133   19.09600   -6.03341
      H1    -4.22397   18.23931   -5.74234
       H    -7.78104   17.77227   -0.03936
       O    -7.97857   17.85827    0.90387
      H1    -8.48106   18.69914    0.97959
       H    -3.64862   14.41592   -8.13700
       O    -3.49888   14.17595   -9.05155
      H1    -2.87530   14.85191   -9.32384
       H    -0.27666   12.77313   -4.06846
       O    -0.80746   12.06789   -4.56719
      H1    -1.18633   11.47944   -3.83408
       H    -3.49383   13.60812   -5.26689
       O    -2.79352   14.33679   -5.36792
      H1    -2.21011   14.34946   -4.57990
       H    -9.90955   14.79545   -3.79249
       O    -9.02117   14.70340   -3.36548
      H1    -8.69444   13.83444   -3.65086
       H   -10.01020   15.40100    0.24857
       O    -9.92562   15.95055    1.00703
      H1    -9.18349   16.51206    0.78085
       H    -0.67124   15.74838   -9.82663
       O    -1.46922   16.09548  -10.21886
      H1    -1.69546   16.89174   -9.69567

