174
frame 4 | Written by MDAnalysis XYZWriter (release 2.4.3)
       H   -15.61913   -5.24817   10.53208
       O   -16.10422   -6.12107   10.40799
      H1   -16.89812   -5.74368    9.89889
       H   -17.77392    6.38105    9.06358
       O   -17.43428    6.29810   10.01087
      H1   -18.16189    6.42438   10.63120
       H    -8.21926    1.28508   12.13443
       O    -7.83009    0.41708   12.27728
      H1    -7.32332    0.48592   13.10509
       H   -16.56083    4.65868    7.37765
       O   -16.40932    3.74403    7.69560
      H1   -15.93800    3.82718    8.55918
       H   -13.08986    0.91589    3.72894
       O   -13.84550    1.17109    3.16311
      H1   -14.54458    1.55782    3.75956
       H   -13.22764    3.90038   12.37842
       O   -12.87646    3.19905   11.84101
      H1   -12.51764    2.60819   12.50772
       H   -17.01154   -4.34889   13.02855
       O   -16.45436   -3.61404   13.29409
      H1   -16.70125   -3.52281   14.23370
       H   -17.97573    2.96078    7.56199
       O   -18.76535    2.44111    7.40260
      H1   -19.48764    2.77519    7.91181
       H   -11.63067    9.11049    9.72552
       O   -11.80156    8.70208    8.88624
      H1   -12.18886    7.82897    9.10475
       H   -13.02334    2.34489   16.83421
       O   -12.19623    2.79226   16.60419
      H1   -11.62238    2.30612   17.20217
       H   -13.95667   -0.68782   14.88599
       O   -13.18199   -0.93147   14.46374
      H1   -13.36092   -1.50716   13.70523
       H   -15.97525    5.32384   10.43342
       O   -15.26363    4.69795   10.29414
      H1   -15.48518    3.87925   10.74569
       H   -13.95185    4.87484   14.50971
       O   -13.57952    5.18976   13.59393
      H1   -13.01010    5.90006   13.87280
       H   -16.21501    7.77554   10.25555
       O   -15.40171    8.19406    9.90765
      H1   -15.04953    8.67891   10.66060
       H   -18.69963    6.01049   15.62722
       O   -17.88467    5.46841   15.67254
      H1   -17.93186    5.04830   14.77333
       H   -16.68972   -1.88353   12.56400
       O   -17.15099   -1.11083   12.23995
      H1   -18.01458   -1.44106   11.96573
       H   -10.83774    4.50111    7.21357
       O   -10.21718    3.77072    7.32444
      H1    -9.62641    4.14953    8.02942
       H   -17.67380    2.85174   14.10031
       O   -17.93115    3.59687   13.55025
      H1   -17.31545    3.53432   12.75315
       H   -16.14528    3.04843    4.54125
       O   -15.60483    2.68337    5.22338
      H1   -16.13431    2.73875    6.00806
       H   -16.78168    6.60092   15.60966
       O   -16.14198    7.29731   15.35741
      H1   -15.98056    7.04993   14.45238
       H   -14.06079   -2.99140    9.25261
       O   -14.79876   -3.61574    9.33905
      H1   -15.46610   -2.95069    9.57279
       H   -15.70588    1.51052   11.15825
       O   -16.33638    2.24982   11.20043
      H1   -17.11812    1.95113   10.77813
       H    -8.87666    3.38258   10.84521
       O    -9.15925    2.77687   11.51592
      H1    -9.94388    2.25253   11.15959
       H   -18.39200    0.90989    8.54059
       O   -18.04367    0.51661    9.34358
      H1   -17.45676   -0.20415    8.96820
       H    -8.92130    5.34892   12.66048
       O    -9.56363    6.04719   12.42714
      H1   -10.35081    5.56347   12.08431
       H   -13.47703    2.14867   10.30350
       O   -13.30581    1.49817    9.60132
      H1   -14.09957    0.93487    9.66453
       H   -17.11183   -0.67975   13.86226
       O   -16.81118   -0.59510   14.81046
      H1   -16.98207   -1.47704   15.20836
       H   -12.44304    6.57811    7.27800
       O   -11.70858    6.20829    6.69467
      H1   -12.15611    5.86360    5.89012
       H   -14.23269    3.06131   17.82605
       O   -14.78749    2.29570   17.44734
      H1   -14.79098    1.49159   18.01401
       H   -14.72394    7.08797   16.48684
       O   -14.01298    6.85173   17.14355
      H1   -13.47972    6.13021   16.76971
       H   -15.03856    7.19417   11.66524
       O   -15.29657    7.00035   12.57062
      H1   -14.77109    6.26551   12.87080
       H   -17.42931   -1.83303    7.42021
       O   -16.75311   -2.00327    8.08001
      H1   -15.92253   -2.10463    7.62963
       H   -10.96769    2.03188    6.93927
       O   -11.62158    1.28347    6.97469
      H1   -12.18274    1.40172    7.73484
       H   -12.95507   -1.58274    7.85154
       O   -13.33462   -0.92070    7.23730
      H1   -12.70741   -0.23437    6.98968
       H   -14.49215   -0.93637   11.17642
       O   -15.11036   -0.35750   10.68447
      H1   -15.93583   -0.54543   11.17302
       H   -11.61257    4.26795    9.04984
       O   -11.44916    4.53931    9.93210
      H1   -11.89414    3.95142   10.53806
       H   -19.59583   -1.92286    6.43498
       O   -18.93227   -1.23485    6.57684
      H1   -18.41408   -1.22917    5.73314
       H   -13.77289   -2.90742   12.14997
       O   -13.40474   -2.03318   12.06532
      H1   -12.47970   -2.28712   11.81705
       H   -12.13394   -1.01729   16.34093
       O   -11.97722   -1.45691   17.18409
      H1   -11.57074   -2.28190   16.91158
       H   -18.23580   -0.22278    4.00538
       O   -17.67550   -0.98583    4.31743
      H1   -17.92743   -1.78266    3.82939
       H   -17.24282    7.52354    7.34761
       O   -17.41969    6.63978    7.12577
      H1   -18.41844    6.64809    6.96120
       H   -13.97592    3.77564    5.73215
       O   -13.72094    4.68156    5.45169
      H1   -14.05279    5.18892    6.23468
       H   -15.94659   -2.86786   16.61975
       O   -16.77379   -2.88536   16.02920
      H1   -17.46069   -3.27483   16.54469
       H   -18.61656   -3.86476    9.72095
       O   -17.91924   -4.38501    9.27012
      H1   -17.45696   -3.65942    8.78270
       H   -10.34787    0.06346    7.58574
       O    -9.66359   -0.63664    7.79795
      H1   -10.02545   -1.56842    7.82693
       H    -9.87576    0.49165   14.83956
       O    -9.06349    0.40760   15.32175
      H1    -9.34923    0.76280   16.19407
       H    -9.73752   -2.95241   11.67370
       O   -10.41191   -2.19993   11.53889
      H1    -9.95706   -1.36491   11.38517
       H   -11.92358    0.80373   10.53940
       O   -11.05455    0.80824   10.95985
      H1   -11.30114    0.42670   11.83782
       H   -16.22750    4.62481   15.79274
       O   -15.27778    4.37017   15.74366
      H1   -15.23378    3.56748   16.21582
       H   -18.41172    2.95507   18.22341
       O   -17.76019    2.26229   18.20181
      H1   -16.87012    2.77053   18.26042
       H   -14.25392   -6.24472    6.73052
       O   -14.78116   -5.44102    6.46995
      H1   -14.66565   -4.70685    7.05623
       H   -17.72580    1.84564   16.48942
       O   -17.92056    1.76990   15.53359
      H1   -17.48561    0.91211   15.30279
       H   -16.18896   -1.79115    5.63756
       O   -15.32866   -2.20188    5.73117
      H1   -14.78589   -1.50001    6.16683
       H   -13.73888   -4.71858   14.74323
       O   -14.01532   -4.58312   13.81250
      H1   -14.84445   -4.11303   13.82819
       H   -14.50408    7.06279    8.63491
       O   -14.01251    6.33775    8.17281
      H1   -14.11018    5.55227    8.78060
       H   -19.63124    5.30317   18.13848
       O   -18.91446    4.68226   17.99278
      H1   -18.52345    4.88293   17.10618
       H   -12.04000    1.68021   14.78302
       O   -11.81970    1.35277   13.91647
      H1   -12.35908    0.49714   13.92894
       H   -11.55624   -2.37077    9.66510
       O   -12.18544   -2.64093    9.02144
      H1   -11.72852   -2.97876    8.24006

