174
frame 12 | Written by MDAnalysis XYZWriter (release 2.4.3)
       H    -5.16511   -7.80632    4.33849
       O    -5.48568   -8.32359    5.10299
      H1    -6.34573   -7.87626    5.33894
       H   -12.42795  -11.66597    8.80725
       O   -12.77391  -12.16215    8.05031
      H1   -13.27542  -11.55539    7.57281
       H    -6.66905  -11.02934    1.04151
       O    -6.19365  -11.62257    0.54056
      H1    -6.60199  -11.64967   -0.36335
       H    -7.50334   -9.05316    9.01317
       O    -8.46522   -9.02448    8.78741
      H1    -8.74428   -9.90680    8.92019
       H    -6.38278   -3.93416    5.64969
       O    -7.15951   -3.31818    5.62446
      H1    -6.71369   -2.49722    5.48147
       H    -8.82197  -11.45888    7.12508
       O    -8.88321  -11.86698    6.26702
      H1    -9.63408  -12.46203    6.24354
       H    -9.00103   -9.71554    1.20835
       O    -8.31674   -9.79725    1.88689
      H1    -7.51887   -9.35215    1.53234
       H    -8.67823  -12.87142   10.05841
       O    -8.01671  -12.17840    9.88233
      H1    -7.47803  -12.53916    9.17702
       H    -9.73464   -8.63034   11.97190
       O    -9.93965   -9.58263   11.89943
      H1   -10.58277   -9.73492   11.13039
       H   -11.31845   -5.14524    3.89350
       O   -11.90304   -5.06952    4.69153
      H1   -11.44215   -5.63370    5.37158
       H    -9.47230   -3.62049    7.84678
       O    -9.22792   -2.91243    7.21800
      H1    -8.57318   -3.26187    6.57050
       H   -10.67840  -13.99999    0.05374
       O   -11.10891  -14.71788    0.50655
      H1   -10.47896  -15.34880    0.85680
       H   -10.20931  -12.83640   -2.33931
       O    -9.82927  -12.35363   -1.54760
      H1   -10.46566  -11.65889   -1.50652
       H    -5.08949  -10.24718    4.23993
       O    -4.64080  -10.70803    3.54085
      H1    -3.68743  -10.60796    3.75542
       H    -5.14191   -7.15913    2.35502
       O    -4.67670   -6.47919    2.80803
      H1    -4.66328   -5.70628    2.21346
       H   -10.96565   -2.89739    6.69450
       O   -11.91210   -2.96912    6.56937
      H1   -11.93290   -3.56199    5.84532
       H    -7.58176   -6.08682   -0.18750
       O    -7.97430   -5.48070    0.42453
      H1    -7.64334   -5.68170    1.30596
       H   -11.57823  -10.96415    1.72845
       O   -11.59111  -10.18814    1.12485
      H1   -11.51964  -10.40379    0.20662
       H    -5.48415   -8.54987   10.04185
       O    -5.78507   -8.28343    9.13840
      H1    -4.97719   -8.39074    8.56609
       H   -13.53242  -14.19526    1.17241
       O   -13.97372  -14.00171    2.04290
      H1   -14.45095  -14.78408    2.25801
       H   -15.86940  -10.62350    4.20899
       O   -16.69797  -10.86714    4.65805
      H1   -16.68008  -10.52584    5.57674
       H    -6.80856  -17.74555    3.50217
       O    -6.20560  -16.97540    3.78500
      H1    -6.74320  -16.17671    3.72552
       H    -4.27794  -12.37342    2.51521
       O    -3.87456  -13.23857    2.26168
      H1    -4.61090  -13.84902    2.08353
       H   -10.87901  -10.91765    4.30938
       O   -11.56453  -11.46649    3.83405
      H1   -11.83378  -12.02158    4.54573
       H    -9.23338   -7.72974   10.10896
       O    -9.46075   -6.96382   10.70572
      H1    -9.64855   -6.33930   10.01061
       H    -8.77952  -10.61053    4.88939
       O    -9.15425   -9.83019    4.42819
      H1    -8.75522   -9.93360    3.50435
       H   -12.47055  -10.76154   10.91198
       O   -11.78671  -10.52603   10.25004
      H1   -12.12071   -9.84374    9.66293
       H    -7.25046  -14.35899    2.84510
       O    -7.34187  -14.58791    3.75930
      H1    -8.20869  -14.51933    4.03097
       H    -6.12412   -6.36815   -2.00222
       O    -6.56976   -6.94798   -1.35630
      H1    -5.97555   -7.61981   -1.18459
       H   -12.90561   -8.24267    7.61555
       O   -12.21926   -8.25547    8.27291
      H1   -12.41183   -7.65419    9.02847
       H   -14.37647   -9.88863    2.70273
       O   -14.53867  -10.81241    2.86720
      H1   -13.74034  -11.15856    3.19455
       H    -9.80350   -7.28173    6.73682
       O   -10.60909   -6.77823    6.86771
      H1   -11.23230   -7.34683    7.33485
       H    -2.92585   -8.97204    6.80474
       O    -3.80606   -8.89465    7.21366
      H1    -4.35157   -8.61080    6.40711
       H   -10.00913   -5.16984    1.53930
       O   -10.04554   -4.69128    2.38240
      H1    -9.11654   -4.59972    2.68683
       H    -5.46707   -5.50566    7.66183
       O    -5.65823   -5.55817    8.61982
      H1    -5.79736   -6.51181    8.73160
       H    -8.07538  -12.39124   -1.85261
       O    -7.11036  -12.18507   -1.97195
      H1    -6.62643  -12.96798   -2.32323
       H    -6.48319   -4.28499    2.29494
       O    -7.18255   -4.66677    2.82911
      H1    -7.18662   -4.13010    3.62221
       H    -4.32338  -11.91567   -0.11200
       O    -3.51934  -11.51947   -0.44726
      H1    -3.03716  -12.32035   -0.68041
       H   -14.25084  -13.37589    3.82039
       O   -14.39998  -13.48951    4.79229
      H1   -14.94599  -12.73101    5.05680
       H    -1.31685   -6.90273    2.88187
       O    -1.99197   -7.54948    2.83932
      H1    -2.80643   -6.99940    2.69988
       H    -5.67297  -14.80446    8.20952
       O    -5.35424  -15.67542    8.09221
      H1    -5.95090  -16.22233    8.64663
       H    -6.24543  -13.54536    0.64736
       O    -6.26328  -14.43260    0.95976
      H1    -6.69228  -15.03594    0.35231
       H   -13.76870   -8.01084    2.30292
       O   -14.51507   -8.20938    2.83670
      H1   -15.24661   -7.99868    2.19635
       H   -10.35567   -5.64241    8.34251
       O   -10.06230   -4.89229    8.88304
      H1   -10.81302   -4.49427    9.21953
       H   -11.87513  -13.22934    6.77130
       O   -11.28165  -13.59005    6.07041
      H1   -11.61213  -14.47527    5.85989
       H   -14.78851  -10.11441    6.74052
       O   -13.91867  -10.23614    6.32099
      H1   -13.76268   -9.36178    5.95378
       H    -3.55712  -12.92977    4.95362
       O    -2.82013  -13.49684    5.19759
      H1    -3.07333  -13.81390    6.10881
       H    -4.22950   -4.80041    6.31273
       O    -4.97572   -5.03274    5.79948
      H1    -4.71046   -5.07759    4.84463
       H   -13.68907  -14.83811    5.70458
       O   -13.20782  -15.71470    5.69717
      H1   -13.57896  -16.14119    6.47757
       H    -6.62583  -13.05626    4.49624
       O    -6.37368  -12.50805    5.26242
      H1    -7.25377  -12.52065    5.71140
       H    -9.19443   -5.23936   -2.62505
       O    -9.79931   -5.05253   -1.88224
      H1    -9.30502   -5.23137   -1.09213
       H    -5.03712  -12.24381    8.28994
       O    -5.83970  -12.70605    8.01734
      H1    -5.91783  -12.47922    7.06760
       H    -4.75749   -9.47929    2.13700
       O    -5.17584   -8.81593    1.50554
      H1    -4.56649   -8.72758    0.75386
       H    -8.06779   -8.30159    7.09745
       O    -7.92068   -8.01099    6.16431
      H1    -8.35796   -8.65380    5.55445
       H   -14.31739   -6.85152    6.03570
       O   -13.80778   -7.58465    5.70827
      H1   -14.19448   -7.87704    4.87334
       H    -2.41818  -11.49749    8.42574
       O    -3.30374  -11.62284    8.22328
      H1    -3.61441  -10.81763    7.73720
       H   -10.92893   -9.60875   -2.07908
       O   -11.47235  -10.24867   -1.54101
      H1   -12.30688  -10.21468   -2.04391
       H   -12.75073   -6.95759    0.69769
       O   -12.21284   -7.24875    1.39299
      H1   -12.01746   -8.16685    1.33146

