174
frame 1 | Written by MDAnalysis XYZWriter (release 2.4.3)
       H    17.79218    3.95536   -8.00138
       O    18.54665    3.73784   -7.45059
      H1    18.43436    2.79663   -7.18086
       H     9.57358    7.40851  -11.20187
       O     9.65873    8.01550  -10.49759
      H1     9.96299    7.46150   -9.74861
       H    16.16039    8.23970   -5.97537
       O    15.56120    8.66690   -6.64840
      H1    14.67112    8.42567   -6.49988
       H    11.32221   10.71243  -14.71022
       O    11.49651   11.57620  -14.44767
      H1    12.35647   11.78627  -13.96282
       H    19.92114    5.76640  -10.90915
       O    19.30871    6.42842  -11.14313
      H1    18.43630    5.93871  -11.19317
       H    16.80882   14.26557   -6.82960
       O    16.33296   14.68148   -6.11521
      H1    15.37322   14.55307   -6.31519
       H    17.11766   15.60098  -12.11121
       O    16.82973   15.88495  -11.24799
      H1    16.37434   15.15499  -10.82871
       H    11.92743    4.33361   -5.80018
       O    12.19080    4.34850   -4.84477
      H1    12.76426    5.14698   -4.75362
       H    15.46878   10.13184   -3.13051
       O    15.71637   11.09805   -3.26755
      H1    15.06486   11.57283   -2.72105
       H    13.63171   12.08925  -10.75454
       O    13.98917   12.96733  -10.94345
      H1    13.43891   13.64882  -10.55750
       H    16.05845   12.99862  -11.07247
       O    16.97963   12.71618  -10.91858
      H1    17.09525   12.97860   -9.99160
       H    14.75709    9.42863   -8.50333
       O    14.51661    9.61054   -9.40208
      H1    13.73441    9.07891   -9.59665
       H    14.81815   11.66343   -8.85065
       O    15.08367   12.22937   -8.10474
      H1    14.99473   13.15411   -8.35322
       H    18.81965   11.30350   -4.27526
       O    18.38513   11.44262   -3.41241
      H1    17.47913   11.48533   -3.59494
       H    14.74672    3.20682   -3.62161
       O    15.23983    3.90107   -3.20668
      H1    15.51419    4.37896   -3.99708
       H    12.20529   14.31175   -8.97239
       O    12.57221   14.92593   -9.65036
      H1    11.97058   14.97112  -10.38478
       H    12.48109    5.02399  -14.85305
       O    12.68598    4.45535  -14.12776
      H1    12.97645    5.03811  -13.45204
       H    19.13302   10.45037   -9.31748
       O    19.42102    9.83572   -9.99978
      H1    18.58810    9.42937  -10.31118
       H    17.15188    4.27869   -5.44871
       O    16.49754    4.96157   -5.30292
      H1    17.09306    5.69263   -5.10533
       H    10.94088   12.67310   -9.83900
       O    10.15317   13.34583   -9.91352
      H1    10.05912   13.56847  -10.84332
       H    12.03365   10.67610   -9.98034
       O    12.08277   11.46400   -9.35630
      H1    11.46400   11.20129   -8.64325
       H    11.09370   16.76950   -6.11005
       O    11.49880   16.22779   -6.80464
      H1    11.86531   15.56196   -6.22243
       H    12.07767    9.60304  -12.21403
       O    11.59332    9.81499  -11.40358
      H1    11.00358    9.10812  -11.16029
       H    19.04427   10.86395   -7.06372
       O    18.29709   10.64816   -7.67593
      H1    17.68042   10.15590   -7.15941
       H    13.93659    9.81433  -15.49119
       O    14.72887   10.42133  -15.50774
      H1    14.92844   10.43257  -16.43205
       H    12.73695   11.09684   -2.94938
       O    12.28511   10.34012   -3.35208
      H1    11.56161   10.19022   -2.69556
       H    10.08116    8.08858   -7.46311
       O    10.47862    7.36023   -7.97949
      H1     9.86392    6.59786   -7.93491
       H    14.71257   11.73487  -13.92126
       O    14.17050   12.38957  -13.54822
      H1    14.30927   12.39955  -12.61320
       H    11.60736   10.17935   -6.19426
       O    11.10787   10.56686   -6.95940
      H1    10.43220   11.06564   -6.46156
       H     8.94500   12.88278   -5.04976
       O     9.87426   12.63572   -5.33324
      H1    10.14661   13.40288   -5.83601
       H    18.25887   12.48366   -8.29617
       O    18.14778   13.44137   -8.39588
      H1    18.66100   13.58079   -9.25831
       H    17.25126    2.82791  -11.86803
       O    16.34280    3.12661  -11.73680
      H1    16.34857    4.08634  -11.88897
       H    19.41220    7.51895  -14.18162
       O    19.18048    6.72105  -13.74944
      H1    19.14190    6.86523  -12.77976
       H     8.53804    7.77578   -5.71041
       O     7.96230    8.40748   -6.17582
      H1     7.38753    7.92954   -6.77003
       H    13.01827    8.27368  -13.11697
       O    13.28910    9.16892  -13.27946
      H1    14.24768    9.08027  -13.22339
       H    10.35692   12.15741  -13.38496
       O     9.58177   12.27341  -12.78113
      H1     9.35609   11.41970  -12.34223
       H    14.29239   15.23744   -9.14297
       O    15.20102   15.04193   -8.96455
      H1    15.66284   15.86245   -8.85592
       H    12.44635    6.42270   -2.61804
       O    11.64661    6.91708   -2.47306
      H1    11.11983    6.71850   -3.24072
       H    18.47250   14.91583  -10.88331
       O    19.26652   14.71900  -10.37337
      H1    19.34015   15.49387   -9.79914
       H    11.50269    6.56615  -12.60773
       O    12.45038    6.52000  -12.38533
      H1    12.68201    6.99071  -11.56195
       H     8.58139    9.57891  -10.90053
       O     8.21669   10.24289  -11.51822
      H1     7.88097   10.99518  -10.99188
       H    17.02134    7.77576   -9.80600
       O    17.05260    8.46767  -10.50889
      H1    16.16336    8.86882  -10.28006
       H    14.87916   11.57615   -4.91958
       O    14.14158   11.69014   -5.53030
      H1    14.56836   11.91812   -6.37337
       H    18.32861    7.65599   -6.38743
       O    17.78098    7.49788   -5.60828
      H1    18.33393    7.97893   -4.97414
       H    13.73229    9.88600   -5.78658
       O    13.09701    9.17221   -5.76609
      H1    12.78993    9.30360   -4.84517
       H    13.60079    2.61873   -7.32733
       O    14.53206    2.82610   -7.23640
      H1    14.91069    1.92151   -7.02017
       H    15.42401    3.48953   -8.56717
       O    16.24328    3.94497   -8.97612
      H1    16.05631    3.89302   -9.94096
       H    13.66415    9.20685   -3.08091
       O    14.56470    8.86198   -2.95511
      H1    14.55731    8.61363   -2.01311
       H    19.18024   11.09671  -12.48997
       O    18.57611   11.73605  -12.98020
      H1    18.01453   12.07340  -12.24442
       H    16.79043    6.91715  -11.66965
       O    16.76437    5.98284  -11.92430
      H1    16.93969    5.88981  -12.82170
       H    14.80014    6.27157   -5.14300
       O    14.06548    6.46787   -4.48755
      H1    14.28170    7.33059   -4.08267
       H    12.62706    4.93616   -7.86322
       O    11.88855    4.39913   -7.56950
      H1    11.52228    4.17588   -8.40869
       H    12.14026    7.40288   -9.18147
       O    12.91360    7.32310   -9.78735
      H1    13.55700    6.85447   -9.28002
       H    19.26211    8.42906   -8.49356
       O    19.35729    7.60092   -7.96777
      H1    19.22050    6.82668   -8.52990
       H    17.15563    9.17847  -13.74098
       O    16.19864    9.14358  -13.68056
      H1    15.89038    9.64594  -14.44990
       H    15.61821    6.96477   -7.55596
       O    15.07162    6.35866   -8.14364
      H1    15.57674    5.53896   -8.20322
       H     9.95969    6.05801   -4.79118
       O    10.08121    7.01266   -4.88427
      H1    10.50060    7.14937   -5.77565
       H    13.22021   13.31348   -5.12006
       O    12.73201   14.13014   -5.03271
      H1    12.12319   13.99593   -4.32030

