174
frame 3 | Written by MDAnalysis XYZWriter (release 2.4.3)
       H    14.08955  -12.92769    4.43287
       O    13.40935  -12.67165    3.78926
      H1    12.70072  -13.30779    3.85709
       H     8.63830  -12.13509   10.89053
       O     9.25843  -12.84724   10.71073
      H1     8.65808  -13.51292   10.33229
       H    10.97120  -17.28194   12.11689
       O    11.48742  -17.48731   11.32820
      H1    10.87794  -17.24363   10.65584
       H    15.84983  -14.10347    0.73249
       O    16.05863  -13.25811    0.32489
      H1    16.41939  -13.63942   -0.49596
       H    13.03748  -17.95582   11.26758
       O    13.95999  -18.33835   11.26954
      H1    14.03713  -18.87081   10.48595
       H    10.63757  -13.78318    3.40679
       O    11.18161  -14.28564    4.04033
      H1    11.38754  -15.10943    3.53073
       H    14.40439  -16.68633   14.31940
       O    14.77142  -16.45331   15.17491
      H1    14.02033  -16.38857   15.79565
       H    18.17094  -12.31347    0.90915
       O    18.78708  -11.59786    0.68261
      H1    19.22725  -11.48309    1.53881
       H    12.93667  -15.09440   -1.93778
       O    13.07040  -15.63507   -2.71903
      H1    13.31467  -16.49259   -2.30050
       H    13.57155  -12.43239    1.65199
       O    13.77856  -12.09745    0.75330
      H1    14.65511  -12.51406    0.57761
       H     8.58059  -14.52789    5.86247
       O     9.49273  -14.48068    6.23252
      H1    10.03535  -14.20518    5.50582
       H     8.56163  -16.88623    0.30293
       O     8.65004  -16.07399    0.78444
      H1     8.65275  -16.29120    1.71342
       H    17.96632  -11.56657    3.51844
       O    17.01110  -11.59785    3.39615
      H1    16.63390  -10.73950    3.62583
       H    18.90156  -11.44919    7.62251
       O    18.12693  -11.31384    8.24109
      H1    18.33820  -11.71020    9.08911
       H    15.79611  -12.99896    6.10573
       O    15.87278  -13.44214    5.24671
      H1    16.31462  -12.80445    4.66222
       H     8.71125  -17.85765   -1.48492
       O     7.89745  -17.94819   -0.94835
      H1     7.17704  -17.96020   -1.57182
       H    13.47444   -9.25771    6.69956
       O    13.31657  -10.19474    6.84973
      H1    14.12447  -10.66815    6.94703
       H    17.16864  -15.62995   13.43862
       O    17.76459  -15.97451   12.76805
      H1    18.63496  -16.10907   13.19759
       H    18.54894  -18.27240    2.72902
       O    18.94182  -18.98140    3.21028
      H1    18.23355  -19.40031    3.67543
       H    13.82511  -13.30471    9.34036
       O    13.50022  -12.57320    8.82605
      H1    12.63712  -12.95021    8.56161
       H     8.00235  -13.30242    2.71096
       O     7.18551  -13.33820    3.23158
      H1     6.65250  -13.89728    2.58459
       H    12.95608  -11.08202    3.75386
       O    12.84559  -10.09152    3.91159
      H1    12.65998  -10.03453    4.86025
       H    13.69275  -18.76373   -1.36957
       O    13.52682  -17.86690   -1.02301
      H1    13.39192  -18.09480   -0.08567
       H    12.72544  -13.51032   -0.26687
       O    11.93547  -13.81140   -0.70943
      H1    11.77823  -14.68870   -0.37721
       H     6.90947  -17.61923    9.78140
       O     7.55207  -17.10950   10.23820
      H1     7.30091  -17.18111   11.14753
       H    10.01172  -17.82466    8.25721
       O     9.87401  -18.35605    9.06230
      H1     8.98461  -18.14438    9.38249
       H     8.56124  -19.63196    3.20028
       O     7.72705  -19.21255    3.15487
      H1     7.18559  -19.63211    3.81532
       H    16.95761  -17.66308   12.63241
       O    16.56700  -18.43179   12.22406
      H1    15.62456  -18.30780   12.08224
       H    14.94402  -12.02609    8.08092
       O    15.52450  -11.68602    7.38311
      H1    16.48253  -11.71069    7.62166
       H    17.02426  -18.30802    9.36738
       O    17.37360  -19.07565    9.83651
      H1    17.05611  -18.97766   10.79460
       H    14.42258  -15.56336   10.83710
       O    14.59596  -14.99472    9.98856
      H1    15.44722  -14.53088   10.15681
       H    13.75201  -19.88041    8.33005
       O    14.40937  -19.31075    8.72400
      H1    15.19165  -19.87679    8.67511
       H    16.36849  -16.33564    4.71385
       O    15.77015  -15.89541    4.10488
      H1    15.62334  -15.01839    4.39056
       H    10.64330  -18.42190   -2.31624
       O    10.40929  -17.49611   -2.21637
      H1    10.73468  -17.19946   -3.07205
       H    14.31464  -11.88564   11.41212
       O    13.38613  -12.14955   11.45364
      H1    13.07301  -12.16360   10.55751
       H    13.14141  -16.02243    8.16158
       O    13.22663  -16.83693    7.72435
      H1    13.62442  -17.33031    8.44768
       H    12.53644  -15.71794   12.56194
       O    13.48474  -15.62486   12.60374
      H1    13.61556  -14.63310   12.75525
       H    10.99536  -16.83443   -0.62192
       O    11.20329  -16.32154    0.19575
      H1    10.38597  -15.91828    0.39611
       H    12.44014  -19.63532    1.49228
       O    13.03987  -18.85437    1.41309
      H1    13.96172  -19.08489    1.72796
       H    11.24797  -17.91651    3.99459
       O    10.52133  -18.53186    4.11469
      H1    10.77525  -19.12430    4.82483
       H    18.13834  -14.16841   10.22130
       O    17.53520  -14.94287   10.22288
      H1    17.41163  -15.26707   11.14811
       H    14.29208  -18.39321    5.47372
       O    14.60215  -19.24096    5.84720
      H1    14.85324  -19.01472    6.75700
       H     6.48525  -14.69150    4.95228
       O     6.54644  -15.02635    5.82517
      H1     6.76557  -15.96320    5.88810
       H    16.68965  -16.06189    0.95078
       O    15.76663  -15.91170    1.27318
      H1    15.81419  -15.85102    2.25194
       H    17.42770  -16.59596    6.49513
       O    17.89952  -16.68225    5.63701
      H1    18.42988  -17.51229    5.59627
       H     8.52083  -17.83075    5.59912
       O     7.63500  -17.85359    6.00290
      H1     7.46042  -18.82865    6.17537
       H    15.78659  -17.96785    1.40751
       O    15.73923  -18.87181    1.81141
      H1    16.11228  -19.49660    1.10588
       H    13.23539  -17.10642    2.72947
       O    13.22993  -16.57010    3.47575
      H1    14.14143  -16.38296    3.77695
       H    19.39518  -16.63515    0.76198
       O    18.49487  -17.02909    0.78142
      H1    18.44054  -17.40966   -0.12523
       H     6.56280  -14.62132    9.01906
       O     7.40634  -14.65548    9.46311
      H1     7.51214  -15.55343    9.80688
       H    16.97198  -15.98272    8.67459
       O    16.44546  -16.55996    8.11497
      H1    15.56350  -16.22021    8.30820
       H     9.88055  -11.95327    2.51449
       O     9.73652  -12.89591    2.27996
      H1     9.26370  -12.99805    1.44701
       H     8.92952  -17.22072    3.51225
       O     8.87088  -16.31024    3.29356
      H1     9.70142  -15.98664    3.73619
       H    15.45178  -16.73368   -3.49274
       O    16.04620  -16.67989   -2.74444
      H1    15.44603  -16.97772   -2.02086
       H    10.18876  -16.13587    6.61091
       O    10.49211  -17.03182    6.60837
      H1    11.42106  -17.12826    6.73273
       H    17.18856  -18.02225   -2.12167
       O    17.77917  -18.35745   -1.41531
      H1    17.57144  -19.27669   -1.12259
       H    10.22069  -12.72182    9.09721
       O    10.58408  -12.60107    8.21150
      H1     9.95351  -13.03304    7.66554
       H    10.08873  -19.51361   12.48891
       O     9.12981  -19.60782   12.44162
      H1     8.79410  -18.83711   12.96486

