174
frame 6 | Written by MDAnalysis XYZWriter (release 2.4.3)
       H    -0.82731    9.16774    9.32679
       O    -1.50430    9.71332    8.89003
      H1    -2.30741    9.42545    9.19708
       H    -4.40767    4.15094   11.89628
       O    -5.24948    3.86856   12.18343
      H1    -5.06494    2.88252   12.28482
       H     4.55750   11.38093   16.81522
       O     4.38423   10.44046   16.71155
      H1     5.07085   10.03191   17.23756
       H     5.23561   12.25159   14.12105
       O     5.89348   12.14133   14.85958
      H1     5.83479   11.25644   15.20920
       H     5.98451    2.77707   11.01147
       O     5.12443    2.34757   10.85156
      H1     5.13921    1.56591   11.34875
       H     2.56574    3.59166    9.39571
       O     3.09014    4.06788   10.05586
      H1     3.86011    3.43447   10.23701
       H     8.56055    3.39000   16.83520
       O     7.66119    3.04688   16.86438
      H1     7.22436    3.22812   15.98780
       H     5.16825    5.52341   18.71854
       O     4.94534    6.49457   18.72637
      H1     5.18012    6.76634   17.84758
       H    -1.25345    3.89451   13.19615
       O    -1.36907    4.06708   14.12225
      H1    -0.74497    3.47170   14.59831
       H     0.30874   -0.32531   18.54268
       O     0.62918   -0.68972   17.70200
      H1     1.32967   -1.29918   18.01973
       H    -4.12658    3.49935   17.40901
       O    -3.26351    3.85429   17.61442
      H1    -3.00921    4.45585   16.92926
       H    -0.94958    4.19329    9.48171
       O    -1.46649    3.82646    8.74378
      H1    -2.02233    3.14585    9.17467
       H     3.68291    6.27195   16.54804
       O     4.27881    6.84985   16.00772
      H1     3.72325    7.07639   15.27392
       H    -1.50090   -1.00053   13.97951
       O    -2.39907   -0.99065   13.64430
      H1    -2.80054   -0.14791   13.92454
       H     4.34028    2.88153   14.79040
       O     4.44578    1.95777   14.62404
      H1     3.71508    1.62238   15.19336
       H     0.68811    5.91926    9.48538
       O     0.08573    5.56971   10.11692
      H1    -0.02036    6.27700   10.77969
       H     0.05135    1.03993   14.86285
       O     0.11261    1.84633   15.38555
      H1    -0.38356    1.80357   16.20112
       H    -3.82626    6.31115   19.26932
       O    -3.54583    5.50851   19.66787
      H1    -3.38497    4.94655   18.91469
       H     5.06406    5.41289   15.00749
       O     5.24793    4.81997   14.27560
      H1     4.47027    4.91241   13.65798
       H    -0.75315   10.34562   12.59681
       O    -1.44307    9.77732   12.94037
      H1    -1.54752   10.05292   13.91346
       H    -4.83681    9.82213   12.03974
       O    -4.08779    9.62720   11.48619
      H1    -3.29969    9.71622   12.07228
       H     3.22565   -0.78220   13.59037
       O     3.54431   -1.31447   14.31660
      H1     4.37948   -0.96480   14.60279
       H     0.16499   -1.94448   14.83344
       O     0.24776   -0.98862   14.94300
      H1     0.58176   -0.83787   15.83457
       H     2.33071    9.59794   14.52033
       O     2.03861    9.45162   15.46988
      H1     2.85238    9.50715   16.01513
       H    -0.80749   13.24680   17.63348
       O    -1.43616   12.55283   17.28497
      H1    -2.15900   12.56476   17.96670
       H     7.01690    2.14564   13.86720
       O     7.34655    3.03148   13.98781
      H1     6.56129    3.58350   14.00059
       H    -1.53706   12.53699   14.84721
       O    -0.88177   13.03189   14.36303
      H1    -0.71518   12.50564   13.57810
       H     2.69095    1.63913   19.49397
       O     3.54887    1.39102   19.12431
      H1     3.98730    2.30259   18.95131
       H     8.80462    5.32923   13.99383
       O     8.10191    5.97037   13.83298
      H1     7.22557    5.67179   13.99587
       H    -5.97108    5.33166   15.62850
       O    -5.55016    5.59320   16.44652
      H1    -4.69582    5.74309   16.12586
       H    -0.60089    5.96268   18.36624
       O    -0.48669    6.36195   17.47897
      H1    -0.09601    7.19475   17.58667
       H    -4.27885    0.88835   17.50075
       O    -3.71553    0.26552   17.06053
      H1    -2.83462    0.30363   17.51441
       H    -2.46602    6.23369   14.95094
       O    -2.68406    6.25579   15.90584
      H1    -1.84713    6.22678   16.39839
       H     0.84689    8.29055    9.27326
       O     0.53207    8.73809   10.09023
      H1     0.52997    8.21157   10.91019
       H     1.11632    5.88731   15.43682
       O     1.29981    6.30094   14.64654
      H1     1.70638    7.19934   14.87387
       H     1.26766   11.91433   11.97811
       O     0.31705   12.21625   12.10984
      H1     0.01019   12.32359   11.19178
       H    -1.88575    2.89637   17.79600
       O    -1.10927    2.27914   17.83898
      H1    -0.55589    2.61911   18.55826
       H     2.09198    4.96270   17.83754
       O     2.48545    4.94576   16.93164
      H1     2.35079    3.95287   16.76716
       H    -2.95706   11.04669   15.52830
       O    -2.32499   10.28432   15.57387
      H1    -1.60227   10.53507   16.14656
       H     1.66743    1.83514   16.12056
       O     2.54603    2.01368   16.57167
      H1     2.51073    1.56430   17.38307
       H     2.97004    4.90681   11.75288
       O     3.14870    5.43144   12.57221
      H1     2.28792    5.55829   13.04518
       H     4.26564    7.06472   12.11696
       O     4.33631    7.94483   11.80792
      H1     5.16680    8.30183   12.10113
       H     5.92246    3.40520   17.89639
       O     5.62315    3.61880   18.78145
      H1     6.41385    3.58295   19.34860
       H     0.11738    0.24681   10.66324
       O     0.81867    1.01018   10.61179
      H1     0.83672    1.39291    9.68246
       H     2.79786    7.40394    8.40694
       O     2.02495    7.28720    7.80269
      H1     2.04345    8.00422    7.12811
       H     3.53778    5.76873    9.54234
       O     4.03678    6.58760    9.47881
      H1     4.17888    7.08047   10.32139
       H     0.52836   10.29056   16.78569
       O    -0.19188   10.33477   17.37603
      H1    -0.46239   11.27770   17.30289
       H    -2.43552    2.61674   14.49489
       O    -3.07224    1.87229   14.47842
      H1    -2.96678    1.42977   15.37098
       H     0.13671    6.60726   13.23855
       O    -0.08697    7.10400   12.42194
      H1    -0.64340    7.79535   12.75872
       H     3.45342    1.36350   12.94648
       O     2.88526    0.74241   12.49641
      H1     2.23789    1.24088   11.94343
       H    -4.35955    1.41423   13.46095
       O    -5.22979    1.29878   13.04503
      H1    -5.87864    1.71831   13.66308
       H     6.48959    9.23398   13.82819
       O     6.51136    9.13777   12.87952
      H1     6.34547   10.00771   12.48650
       H     3.14141    9.30556   12.48474
       O     2.62893    9.95645   13.04294
      H1     3.35353   10.52785   13.31223
       H    -0.20390    3.86133   11.03290
       O    -0.87966    3.27656   11.37655
      H1    -0.49740    2.42617   11.22886
       H     0.55716   11.53085    9.31789
       O     1.47234   11.29330    9.64552
      H1     1.34169   10.40938    9.91804
       H    -5.48188    9.90874   16.42565
       O    -5.12130    9.10535   15.95244
      H1    -4.18930    9.26542   15.83560
       H    -4.72870    8.35497   17.82767
       O    -4.47900    8.63394   18.72287
      H1    -5.21628    9.00755   19.18107
       H     8.14149    9.42771   15.00223
       O     7.32216    9.79574   15.41811
      H1     7.35476    9.36340   16.26145

