174
frame 11 | Written by MDAnalysis XYZWriter (release 2.4.3)
       H     7.24839    9.69842   10.09134
       O     7.73189    8.90690   10.19928
      H1     7.88511    8.50553    9.32597
       H     8.90259   16.19275    3.17157
       O     8.64604   16.67722    4.00182
      H1     7.67608   16.62328    4.04831
       H     4.83298   14.45786   14.07100
       O     5.31138   13.65129   13.72724
      H1     4.95399   13.53336   12.80863
       H     7.09692   16.46831    7.34615
       O     7.26009   15.45890    7.45039
      H1     6.60034   15.13436    6.77129
       H     7.37168   10.00870    4.73066
       O     8.04670    9.46509    4.27920
      H1     7.58142    9.22829    3.41269
       H    10.99100    9.66336   11.48951
       O    11.43191   10.45813   11.82833
      H1    11.87341   10.87534   11.07076
       H    12.92225   12.27193    9.47989
       O    12.01577   12.13150    9.19588
      H1    11.47486   12.72398    9.74849
       H    12.19474    4.72641    6.58146
       O    11.45756    4.49428    7.19110
      H1    10.96674    3.80790    6.71089
       H     7.52499    7.79011    4.80271
       O     7.53487    6.95953    5.28951
      H1     8.44171    6.55824    5.21952
       H     7.64199   16.35261   12.39412
       O     7.45375   16.59257   11.49727
      H1     7.11754   15.80246   11.01719
       H     0.82613    8.46368    6.49541
       O     1.53019    8.95675    7.01214
      H1     1.33016    9.89413    6.81296
       H     6.84221    9.95166    1.25089
       O     7.13334    9.01286    1.49341
      H1     7.97837    8.95824    1.02219
       H     2.05160   15.30946    6.97890
       O     2.94310   15.62295    7.19474
      H1     2.85410   16.52695    7.01023
       H     9.30292   16.28870   10.96834
       O    10.05114   16.06804   10.31112
      H1    10.84142   16.48992   10.74150
       H    12.59562    8.00811    6.93848
       O    13.32596    8.43764    6.44654
      H1    13.05760    9.34295    6.30785
       H     4.68372   14.62098    2.12076
       O     5.54580   14.88903    1.72082
      H1     5.90152   15.51047    2.39822
       H     9.81740   17.43915    9.14372
       O     9.85159   18.22934    8.63012
      H1     8.86458   18.45953    8.48419
       H     2.77410   12.21255    6.41007
       O     1.98479   11.99227    6.90412
      H1     2.12523   12.26053    7.82958
       H     9.61293    5.40979    3.90037
       O     9.95946    5.79436    4.70366
      H1    10.06234    5.04795    5.35473
       H     6.74025    7.64247   12.99178
       O     6.37671    7.13123   12.23672
      H1     6.74061    7.57391   11.43789
       H     7.29271    5.55153    3.89779
       O     6.82623    4.95924    3.29172
      H1     7.47123    4.92410    2.51500
       H     7.38669    7.31430    6.81526
       O     6.93681    7.67184    7.63154
      H1     6.84216    8.64783    7.47254
       H    10.98624   10.46457    4.84653
       O    10.69250   10.00024    4.00925
      H1     9.74191    9.84227    4.17145
       H    12.99326   15.97865    7.25896
       O    13.96260   15.95201    7.54718
      H1    14.42956   16.46744    6.88164
       H     9.06871   13.38614    5.04122
       O     9.05224   12.61069    4.43348
      H1     9.96591   12.46685    4.21256
       H     2.80601    8.24269    3.25288
       O     2.67958    8.53366    2.32888
      H1     2.06628    9.24354    2.33586
       H     6.26623    5.92329    8.25444
       O     6.20981    5.09773    8.73536
      H1     5.56202    5.30136    9.43452
       H     5.23545   13.41884   10.51863
       O     4.85533   12.67760   11.03595
      H1     3.97483   12.54611   10.58507
       H    13.90695    7.17568    3.31519
       O    14.13781    6.98103    4.22779
      H1    13.75064    7.63708    4.83075
       H    13.56122   13.60375    5.77226
       O    14.10871   12.85019    6.07247
      H1    14.11062   12.90871    7.07945
       H     9.16486   15.05189    6.65484
       O     9.59506   14.98512    5.80932
      H1     9.04709   15.61610    5.26106
       H    10.86061    7.51448   10.93629
       O    10.68587    8.35045   10.44208
      H1     9.75024    8.54965   10.56885
       H     5.07231   16.98378    4.09816
       O     5.87264   16.39651    4.05230
      H1     5.77995   15.74602    4.78006
       H     6.49401   12.13507   10.56604
       O     7.33496   11.67564   10.34156
      H1     7.86693   11.63962   11.14135
       H     5.38694   10.86844    2.79455
       O     5.22163   10.37058    3.58778
      H1     5.10574    9.45153    3.26655
       H     9.25834   12.05679   13.36984
       O     9.39583   12.15190   12.44321
      H1    10.13958   11.46111   12.41885
       H     3.43535   12.54123    4.16963
       O     3.86666   12.33502    4.99766
      H1     4.29290   11.50107    4.76227
       H    11.69631    7.72752    8.92307
       O    12.22405    7.12985    8.34695
      H1    11.68771    6.34478    8.10310
       H    11.66936   11.08255    7.17791
       O    12.12620   10.87088    6.34693
      H1    12.75504   11.55813    6.12581
       H    11.05160   17.46779    7.29719
       O    11.53319   16.83049    6.78633
      H1    10.85831   16.14923    6.53286
       H     8.03514   10.79423    7.28761
       O     7.21350   10.69984    7.70260
      H1     7.20930   11.12441    8.56722
       H     6.17789   15.00114    8.94952
       O     5.73498   14.86554    9.79916
      H1     4.83020   15.25837    9.71541
       H     4.84647   13.66457    5.55380
       O     5.27803   14.47030    5.98260
      H1     4.47794   14.84034    6.41709
       H     2.61254    8.69508   11.44627
       O     3.38059    9.28356   11.46546
      H1     4.05468    8.69392   11.73533
       H    10.55531    8.19854    2.82441
       O    10.81116    7.71686    2.00249
      H1    11.73529    7.95175    1.83422
       H    10.72569   14.56783   10.76420
       O    11.18942   13.80999   11.09539
      H1    10.43706   13.27688   11.39725
       H     2.93188    7.20981    9.02569
       O     2.08508    6.96911    8.63664
      H1     1.81860    7.67457    8.03123
       H    11.35023   12.66618    0.61954
       O    10.51949   12.14706    0.51842
      H1    10.82370   11.30616    0.83864
       H     6.59656   12.22256    1.44985
       O     5.91760   11.58360    1.30784
      H1     5.68189   11.73317    0.37569
       H     3.61614    5.34651   10.37832
       O     4.25916    6.09186   10.34178
      H1     4.43774    6.27691   11.27113
       H    12.64370   13.41519   12.03865
       O    13.50727   13.33121   12.49092
      H1    13.37002   12.80945   13.28023
       H    10.28780   15.30123    2.01160
       O     9.38735   15.65221    1.67695
      H1     8.80280   14.82227    1.79772
       H     1.79078   13.08881   10.21658
       O     2.27684   12.42045    9.69451
      H1     1.86367   11.53806    9.89356
       H     3.25700    7.86086    5.72504
       O     3.81110    7.77051    4.91079
      H1     4.38708    6.99842    5.03243
       H    12.43102   13.76252    3.44679
       O    11.94393   12.91595    3.53925
      H1    12.41474   12.21310    3.08314
       H     8.13513   13.03259    2.68214
       O     8.20419   13.17088    1.72866
      H1     8.93484   12.66829    1.40803
       H     7.90754    4.75490    9.76473
       O     8.57103    4.23460   10.23012
      H1     8.06812    4.17825   11.03516
       H     4.09221   12.19324    1.69583
       O     3.22704   12.56337    2.07905
      H1     2.52014   11.93658    1.94296

