174
frame 8 | Written by MDAnalysis XYZWriter (release 2.4.3)
       H     7.00653   -0.30045    3.04402
       O     7.45423   -1.09226    3.41863
      H1     7.32819   -1.77460    2.78833
       H     5.12552   -8.55377    2.95691
       O     5.15763   -7.97335    2.15340
      H1     4.27923   -7.88903    1.72470
       H     0.74186   -8.23497    1.24768
       O     0.71215   -7.94625    0.34987
      H1     1.61591   -7.69871    0.11742
       H     4.74479   -1.40804   -2.33328
       O     4.41498   -2.05716   -2.93229
      H1     5.08668   -2.79449   -2.84368
       H    -0.83198    3.73262    0.06016
       O    -0.46254    3.07236   -0.59599
      H1    -0.44609    2.18698   -0.13468
       H     1.65441    3.35263    4.49419
       O     1.56126    3.87018    5.28422
      H1     2.29722    4.46643    5.27392
       H    -0.79346   -2.45372   -3.91901
       O    -1.70692   -2.29593   -3.67463
      H1    -1.66102   -1.76303   -2.88084
       H     4.25029   -8.16740    5.57137
       O     3.90928   -7.42181    6.13375
      H1     4.41907   -6.63625    5.72832
       H     7.26347   -2.69532    0.57076
       O     7.09745   -3.03153    1.49708
      H1     6.13821   -3.12503    1.48296
       H     1.83860    5.04148    0.94072
       O     2.44980    4.46389    1.33354
      H1     2.25706    3.55831    0.96331
       H    -1.07932   -6.13345    5.83489
       O    -0.95642   -6.98697    6.34400
      H1    -1.79131   -7.43559    6.26276
       H     2.39285   -6.42400    3.42965
       O     1.85256   -7.23628    3.47253
      H1     1.97875   -7.63829    4.33069
       H     4.39591   -4.23435    8.08053
       O     5.06709   -4.36808    8.76743
      H1     4.57556   -4.72273    9.56141
       H     0.19313   -4.94079    0.70745
       O     0.00516   -4.24193    0.03058
      H1     0.83383   -3.97370   -0.36518
       H     1.74783    0.95876    0.04009
       O     2.21515    1.74377    0.30999
      H1     2.85532    1.29471    0.89374
       H     2.59953   -3.28925    7.23348
       O     2.69988   -4.12768    6.81315
      H1     2.22263   -4.71321    7.41858
       H     6.16721   -6.36588    1.66973
       O     6.79827   -5.85941    1.15979
      H1     6.76947   -5.01783    1.56358
       H     4.68601    0.02966    5.95435
       O     3.77123    0.43258    6.11346
      H1     3.92311    1.15399    6.74636
       H     0.49372   -2.40943    3.00586
       O     1.23065   -2.68178    3.49653
      H1     0.97754   -2.83044    4.39386
       H     1.98310   -1.75191   -0.79273
       O     2.57329   -2.53403   -0.90575
      H1     3.11794   -2.20214   -1.63434
       H     2.61070   -4.48381   -1.37624
       O     3.01778   -5.23411   -1.78861
      H1     2.39209   -5.71353   -2.33735
       H     5.03314   -4.63835    5.96025
       O     5.33372   -5.11119    5.18906
      H1     4.69285   -4.96042    4.45838
       H    -2.83780    1.57736    4.46061
       O    -3.79473    1.54878    4.26630
      H1    -3.88733    1.51504    3.30115
       H     3.92503   -4.33608    2.17183
       O     3.59825   -4.63598    3.02010
      H1     2.91772   -4.00825    3.26896
       H     6.07495    0.49313   -1.20286
       O     5.47542   -0.29297   -1.07727
      H1     5.00851   -0.12265   -0.23798
       H    -0.79308   -4.34388    7.81793
       O    -1.34865   -3.67692    7.39460
      H1    -0.88573   -2.93485    6.95022
       H    -3.85964    1.72668    0.88998
       O    -4.16219    1.16098    1.50726
      H1    -4.91175    0.77898    1.04796
       H    -2.34147    0.59491   -1.98050
       O    -1.38968    0.26549   -2.09603
      H1    -1.13662    0.83560   -2.85692
       H     2.97344   -0.10773    4.57073
       O     2.46919   -0.21312    3.71418
      H1     2.19554   -1.15217    3.71864
       H    -1.64905   -6.26290   -0.94800
       O    -1.41744   -7.17087   -1.20719
      H1    -0.65482   -7.29009   -0.71526
       H    -2.47470   -1.12594    8.95945
       O    -1.59335   -1.47963    9.13288
      H1    -1.36031   -2.20246    8.48581
       H     7.06156   -4.99882    4.93685
       O     7.99767   -4.91172    4.95135
      H1     8.25669   -5.71417    4.43599
       H     0.64946   -1.38588    6.90089
       O    -0.18444   -1.39169    6.38735
      H1    -0.29969   -0.45294    6.14409
       H     3.02297   -7.87804    7.64891
       O     2.81438   -8.43474    8.38621
      H1     1.89786   -8.31575    8.73517
       H    -4.05111   -0.06459    7.42337
       O    -4.34294   -0.24325    6.53005
      H1    -3.81141    0.26352    5.91263
       H     2.79387   -0.74741    6.88074
       O     2.35377   -1.44335    7.37945
      H1     2.71024   -1.41312    8.29340
       H    -3.50543   -2.15315    4.71227
       O    -4.22100   -2.56182    4.29271
      H1    -5.03696   -2.03318    4.39584
       H     6.10468   -1.92598    6.31896
       O     6.07983   -1.12355    5.80132
      H1     6.53886   -1.30680    4.96132
       H     0.03105   -8.61157    5.90403
       O     0.68564   -9.20717    5.53633
      H1     0.92384   -9.79416    6.25172
       H    -0.72425    2.91741    7.80232
       O    -0.06916    2.49132    7.18762
      H1     0.34061    3.19091    6.72792
       H    -1.54645   -4.26639    5.64169
       O    -1.49634   -4.70458    4.81221
      H1    -2.29732   -5.17954    4.58485
       H    -2.34310   -6.42018    2.33179
       O    -3.24567   -6.77508    2.42408
      H1    -3.35240   -6.99180    3.35710
       H    -1.71000   -4.26022   -0.52078
       O    -2.51373   -4.72235   -0.70504
      H1    -2.88583   -4.43092   -1.51615
       H     3.63670   -8.05983   -0.39391
       O     3.30655   -7.28121    0.07920
      H1     3.35348   -6.56137   -0.59295
       H     0.97205    1.80961    8.41772
       O     1.25492    1.45796    9.27081
      H1     2.07523    1.05676    9.11953
       H     0.48129   -6.49248    7.74994
       O     0.54290   -5.57790    8.18703
      H1     0.88229   -5.65816    9.08745
       H     3.87785   -3.22515   -0.03376
       O     4.49874   -3.60224    0.61104
      H1     5.09749   -4.24808    0.19997
       H    -1.35642   -1.84936    1.56380
       O    -0.39873   -1.98966    1.47448
      H1    -0.32120   -2.76839    0.89297
       H    -4.89271   -4.08128    5.79655
       O    -4.96860   -4.78747    6.40007
      H1    -5.08925   -5.61365    5.92442
       H    -1.02211    0.27438    1.23348
       O    -1.34252    1.17741    1.08234
      H1    -2.28295    0.93015    1.22671
       H     6.41592   -4.00485    7.82450
       O     7.01282   -3.56870    7.21151
      H1     7.68274   -4.24593    7.26899
       H    -0.94765    1.67578    6.00946
       O    -1.18689    1.11158    5.24551
      H1    -0.54702    1.31398    4.58143
       H     0.53057    2.06691    2.68658
       O     0.74740    1.89652    3.56573
      H1     1.17081    1.03765    3.57941
       H    -3.53311   -1.95647    2.38717
       O    -3.17064   -1.88870    1.53119
      H1    -3.86245   -1.42724    1.08842
       H     4.85736    0.85020    2.13859
       O     4.16117    0.36943    1.70806
      H1     3.56323    0.02811    2.43109
       H    -0.70654   -5.45328    3.11740
       O    -0.47602   -6.00734    2.39299
      H1     0.36278   -6.44367    2.65063
       H     0.39666   -0.94498    0.37544
       O     0.69557   -0.42851   -0.40697
      H1    -0.09908   -0.14460   -0.92639
       H    -4.24958   -4.69781    0.46206
       O    -5.09653   -4.50602    0.79165
      H1    -5.09129   -3.57900    0.99186

