174
frame 6 | Written by MDAnalysis XYZWriter (release 2.4.3)
       H    13.29515    5.32416   15.58673
       O    12.55099    4.78150   15.36119
      H1    11.85367    5.29042   15.10565
       H    10.19808    6.78749   18.44302
       O    10.60246    6.14176   18.95471
      H1    10.63965    5.32832   18.45537
       H    17.27018    6.55516   10.91008
       O    16.40522    6.60317   10.52058
      H1    15.97653    5.88206   10.94690
       H    19.20095    6.64898    9.89239
       O    19.17816    6.28111   10.77820
      H1    19.46474    5.33851   10.75290
       H    15.44677   19.69066   19.85744
       O    15.55647   18.79872   19.57610
      H1    16.31464   18.78281   18.98093
       H    13.61400   19.89183   11.48840
       O    13.70277   19.69550   12.42881
      H1    13.59766   18.75893   12.50020
       H    10.62519    8.59189   17.58669
       O     9.69493    8.28420   17.61261
      H1     9.27675    8.74466   18.33544
       H    11.00840   19.02874   15.51393
       O    11.22587   18.30105   14.91219
      H1    12.12301   18.03593   15.13138
       H    11.37739   14.19200   18.15880
       O    10.49249   14.20068   18.46911
      H1    10.56038   14.06945   19.39054
       H    17.47710   18.87064   12.39216
       O    17.90357   18.01238   12.35907
      H1    18.85192   18.12681   12.44729
       H    12.43752   13.90458   16.28265
       O    12.93631   14.25671   17.08867
      H1    13.30626   13.44745   17.49626
       H    18.52123   11.37317   11.60708
       O    19.12477   11.65097   12.38375
      H1    19.20979   10.79669   12.90217
       H     7.85725   13.05221   17.62742
       O     8.29665   12.19542   17.47992
      H1     9.21684   12.49233   17.74398
       H    10.01747    8.90783   11.32306
       O    10.54618    9.72228   11.46550
      H1    10.58087   10.27332   10.64824
       H    14.36893   17.33438   19.72362
       O    13.66892   16.65594   19.51073
      H1    13.15326   17.02322   18.82702
       H    14.33520    9.96467    9.52931
       O    14.91929    9.42310   10.15960
      H1    15.26110    8.67804    9.57613
       H    16.18557    2.86309   13.50506
       O    16.05980    3.35237   14.32784
      H1    15.26383    3.04934   14.76670
       H    12.43436    8.09199   14.63426
       O    11.88969    7.99749   13.87534
      H1    11.04480    8.20287   14.26264
       H    13.51011   10.21896   11.55476
       O    13.11915   10.28667   12.43713
      H1    12.22505    9.84332   12.31941
       H     9.97432   16.93461   12.36690
       O    10.64029   16.26503   11.91792
      H1    11.56642   16.44738   12.25857
       H    18.58536   19.39305   18.37644
       O    18.45584   18.50858   18.06028
      H1    18.10910   18.57614   17.13821
       H    16.63580   14.63375    9.06410
       O    16.67250   15.47471    9.53624
      H1    16.97714   15.16772   10.44886
       H    10.56766   14.08349   15.07708
       O    11.08845   13.26967   15.32349
      H1    11.76955   13.20071   14.61883
       H     9.59828    7.97519   15.92846
       O     9.33694    8.01669   14.96960
      H1     8.91732    7.19141   14.63565
       H    14.93491   14.47829   17.92257
       O    15.44102   15.22558   18.04654
      H1    14.86573   15.73789   18.64606
       H    15.11862    6.90896   18.76065
       O    15.92246    7.13043   18.35507
      H1    15.52125    7.65282   17.65937
       H    12.40924   19.21021   17.44779
       O    12.44950   18.44308   17.99370
      H1    11.50249   18.06302   17.97703
       H     9.17482   12.75330   15.05083
       O     8.44292   12.99235   14.53452
      H1     7.63647   12.65353   14.95438
       H    17.00637   16.62989   16.39175
       O    16.68041   17.47426   15.97116
      H1    15.77876   17.31107   15.65595
       H    16.66099   11.89429    9.24776
       O    16.20053   12.35768    8.53481
      H1    16.84650   12.26202    7.82915
       H    19.23907   14.17498   14.14334
       O    18.69644   13.46789   14.56236
      H1    18.90916   12.74573   13.92528
       H    14.17909   11.27859   15.53902
       O    13.61417   10.47664   15.58050
      H1    13.45608   10.30581   14.65594
       H     8.32037   14.63315   18.98618
       O     7.47071   14.93367   19.32745
      H1     7.15170   14.18463   19.86753
       H    18.99043    8.79718   15.33112
       O    19.17488    9.38903   14.57638
      H1    19.97262    9.91685   14.74869
       H    14.34531   11.81214    8.75973
       O    13.65308   11.17734    8.44778
      H1    14.19623   10.70982    7.82037
       H    18.08145   14.33718   16.14771
       O    18.05783   15.15463   16.72117
      H1    17.19938   14.96475   17.14890
       H    18.69204   19.75196   15.42901
       O    19.62730   19.99835   15.69421
      H1    20.05517   19.21239   15.98446
       H     8.75904   12.09510   13.10954
       O     8.93003   11.75924   12.17142
      H1     9.47396   10.98166   12.30789
       H    14.03012   12.22184   19.65170
       O    14.26155   12.36145   18.70421
      H1    15.17423   12.01472   18.71703
       H    15.63810   14.66990   13.18840
       O    14.88908   14.68707   13.82925
      H1    14.31766   13.92469   13.54193
       H    17.46465   12.28039   18.25528
       O    16.83809   11.73293   17.72776
      H1    16.50994   12.08733   16.89330
       H    19.23388   13.57579   17.81903
       O    19.13764   13.08522   18.64639
      H1    19.22207   13.76585   19.37369
       H    14.45751    5.92212   12.37282
       O    14.60390    5.03053   12.06549
      H1    15.27403    4.53630   12.61669
       H    10.42546   16.04987   18.25088
       O    10.09263   16.96928   18.21902
      H1     9.72639   17.07970   17.30082
       H    10.47218   14.50795   11.48724
       O    10.78427   13.62212   11.45427
      H1    10.04120   13.04702   11.61045
       H    17.87784   10.54779    9.71380
       O    17.31541   10.88117   10.49284
      H1    16.54689   10.35661   10.45706
       H    13.88496   16.08715   13.12370
       O    13.44238   16.78670   12.55165
      H1    13.72704   16.54306   11.67587
       H    13.78191   16.03475   15.80197
       O    13.72046   16.99508   15.75076
      H1    13.38363   17.28231   16.59625
       H    17.99674    6.86328   16.36442
       O    18.78830    7.38776   16.33112
      H1    18.94660    7.55643   17.29062
       H    14.29493    8.50442   12.68481
       O    15.01648    7.84268   12.59869
      H1    15.39113    8.01300   11.72191
       H    16.74536    4.95430   15.38344
       O    16.46659    5.62666   15.99879
      H1    16.06004    5.28738   16.76184
       H    16.12610   12.02610   14.83413
       O    15.57304   12.34255   15.54547
      H1    15.28123   13.20495   15.26400
       H    12.02554   13.28339   12.65259
       O    12.67785   12.84598   13.20627
      H1    12.59465   11.95230   12.91622
       H     9.05225   15.91048   14.65155
       O     9.95713   15.76895   14.89196
      H1    10.42005   16.44728   14.42579
       H    17.06192   16.01249   12.77850
       O    17.07075   15.13887   12.43393
      H1    17.67981   14.63544   13.03547
       H    14.77319    7.20729   15.70232
       O    14.06753    7.78707   15.99499
      H1    14.12634    8.62978   15.62784
       H    17.41908   10.13447   18.21738
       O    17.74063    9.23977   18.50761
      H1    16.94567    8.79410   18.89650
       H    12.70495    9.58546   17.34297
       O    12.13649    9.29842   18.04773
      H1    12.63668    8.53384   18.35377

