174
frame 0 | Written by MDAnalysis XYZWriter (release 2.4.3)
       H     7.79161    0.21368   -0.46204
       O     7.58161   -0.56905    0.06593
      H1     8.41867   -0.81354    0.52556
       H     6.08049   -1.69219    2.84546
       O     5.96132   -1.98826    1.90086
      H1     6.51162   -1.40610    1.36121
       H     3.56592   -5.49145   -6.09530
       O     3.37030   -4.74507   -6.69211
      H1     2.91848   -5.01284   -7.51159
       H     4.74213   -2.93559   -4.07937
       O     4.09230   -3.64013   -3.76973
      H1     4.71213   -4.30128   -3.39687
       H    10.91585   -1.20110   -0.60262
       O    11.49413   -1.26772   -1.41753
      H1    11.98134   -2.14172   -1.35586
       H     0.06737   -4.82089   -3.03082
       O    -0.12281   -4.18343   -3.75047
      H1     0.71895   -3.91172   -4.12308
       H     5.67463   -3.22529    0.62986
       O     5.59956   -3.90345   -0.01631
      H1     6.27204   -3.72662   -0.66739
       H    13.08559   -4.32338   -1.75189
       O    12.25893   -4.02130   -1.30400
      H1    11.63610   -3.99749   -2.05113
       H    11.48957   -3.06026   -6.27638
       O    11.78347   -2.56875   -5.47490
      H1    11.31653   -2.92311   -4.68508
       H     2.83155    2.82349    1.35378
       O     3.03376    2.95424    0.40927
      H1     3.66970    2.31463    0.12735
       H     7.13394   -5.36359    2.25314
       O     7.55519   -5.39625    1.35732
      H1     6.89005   -5.13954    0.73120
       H     3.00646   -2.21774   -0.83236
       O     2.63350   -2.81514   -1.51408
      H1     3.18627   -2.77763   -2.25285
       H    10.36748    2.30015   -7.12900
       O     9.52943    2.84197   -7.28915
      H1     8.90804    2.11606   -7.37789
       H     2.25276   -3.51211   -6.04419
       O     1.60291   -2.93924   -5.57765
      H1     0.81193   -2.89119   -6.11368
       H     8.80625   -4.29829   -0.36438
       O     8.28018   -3.88488   -1.00984
      H1     8.80148   -3.15378   -1.41735
       H     4.78406    1.16932   -3.80987
       O     4.71517    0.34141   -3.25056
      H1     5.15136    0.54026   -2.42527
       H     5.57529    3.81255   -7.32618
       O     5.22973    3.24736   -8.03109
      H1     4.63183    2.64713   -7.61328
       H     6.06917    0.23548   -9.69814
       O     6.65131   -0.08158  -10.41274
      H1     6.57180    0.65260  -11.02546
       H     7.54225   -4.92157   -7.03119
       O     7.56254   -4.01351   -7.21341
      H1     6.67832   -3.73370   -7.00008
       H    10.01885    0.41594    0.89765
       O    10.07012   -0.53591    0.98242
      H1    10.96122   -0.82864    1.29836
       H    -0.08846    1.09595   -5.05057
       O    -0.16357    0.83648   -5.98455
      H1     0.25696   -0.00889   -5.98515
       H     7.09466   -3.94648   -9.34620
       O     6.91137   -4.37058  -10.20897
      H1     6.63737   -3.65814  -10.77925
       H     4.04804   -7.86149   -5.81684
       O     3.85693   -7.13520   -5.26704
      H1     2.88285   -7.17310   -5.16658
       H     9.37042    1.74444   -4.37831
       O     9.74424    0.80860   -4.13545
      H1    10.65346    1.09574   -3.99796
       H    10.40336   -4.11638   -8.77941
       O    10.30320   -3.64293   -7.89898
      H1     9.37349   -3.73183   -7.69801
       H     3.50897   -0.17962   -4.49754
       O     2.67288   -0.32068   -4.98696
      H1     2.47143   -1.26056   -4.98365
       H     4.23048   -7.61370   -2.22528
       O     3.67899   -8.32542   -2.53598
      H1     3.72971   -8.17981   -3.47327
       H    12.03115    2.56040   -4.30131
       O    12.38010    1.72357   -3.97014
      H1    12.41851    1.82805   -2.95601
       H     5.62140    5.07163   -5.54459
       O     6.30411    4.74571   -6.12538
      H1     6.89963    4.17833   -5.62336
       H     8.47118   -6.65930   -6.58142
       O     7.49132   -6.68194   -6.72388
      H1     7.33398   -7.24770   -7.47442
       H     7.26012    0.93793   -9.01309
       O     7.22955    1.27363   -8.11259
      H1     6.59465    2.02149   -8.14881
       H     1.39156    1.83198   -3.00229
       O     1.07537    0.96253   -3.36315
      H1     1.89463    0.67046   -3.91054
       H    10.77432   -1.12396   -9.38474
       O    11.09272   -1.29789  -10.29000
      H1    10.51131   -0.62268  -10.73864
       H     6.96254    3.28759   -2.86326
       O     7.16604    3.36123   -1.95148
      H1     7.88215    2.73528   -1.82960
       H     2.96280    0.93660   -6.51873
       O     3.38153    1.41116   -7.25167
      H1     2.64338    1.61259   -7.85922
       H     6.35064   -6.08432   -2.44269
       O     6.36549   -5.23629   -2.87825
      H1     7.21585   -4.99333   -2.56467
       H     7.56157   -1.21366   -2.62912
       O     8.19271   -1.49656   -3.31557
      H1     8.70780   -0.65598   -3.53091
       H    10.46700   -0.38760   -7.17212
       O     9.86741   -0.76935   -7.82076
      H1     9.78876   -1.70900   -7.58681
       H    11.87098    0.96101   -5.83274
       O    11.72365    1.12014   -6.78802
      H1    12.49673    1.44406   -7.19260
       H     9.67348   -4.43201   -3.50170
       O    10.12974   -3.56775   -3.38087
      H1     9.48314   -2.82003   -3.33611
       H     5.01509   -6.42344   -0.17592
       O     4.25361   -6.89467    0.18107
      H1     3.43766   -6.35360    0.01912
       H    13.34980    0.19214   -4.07555
       O    13.98076   -0.49446   -4.43939
      H1    13.38009   -1.19089   -4.65782
       H     4.52151   -3.53713   -6.84565
       O     5.12846   -2.90137   -7.26253
      H1     5.26759   -2.30374   -6.50297
       H     3.33586    2.94177   -5.06412
       O     3.84145    2.84073   -4.24924
      H1     3.35625    3.00688   -3.37806
       H     1.99139   -4.46231   -0.17207
       O     2.48638   -4.77679    0.53776
      H1     3.09914   -4.03081    0.62601
       H    10.31904   -7.77991   -6.23674
       O    10.25616   -6.83932   -6.32086
      H1    10.18809   -6.47575   -5.47015
       H     5.24589   -0.85225   -4.46301
       O     5.61998   -1.65903   -4.91213
      H1     6.49413   -1.75650   -4.59728
       H     5.94601   -1.69265  -11.46523
       O     6.17263   -2.52851  -11.96620
      H1     5.28095   -2.83886  -12.20171
       H     9.30689    3.26246   -5.59785
       O     8.86448    3.33926   -4.71757
      H1     9.39984    3.85844   -4.09190
       H    10.22449   -4.71274  -11.14474
       O     9.58678   -5.25117  -10.71921
      H1     8.88788   -4.63820  -10.37113
       H     5.51982    2.24088   -0.31997
       O     5.18335    1.34789   -0.48742
      H1     5.45317    0.83053    0.29228
       H     6.65492   -8.41937   -5.62537
       O     6.20592   -9.16776   -5.19673
      H1     6.81602   -9.87810   -4.93983
       H     7.55639   -7.81729   -1.78818
       O     6.56931   -7.59375   -1.66417
      H1     6.21024   -8.43895   -1.32196
       H     8.05559   -5.80136   -3.91678
       O     9.02648   -5.87951   -3.91986
      H1     9.20691   -6.67465   -3.34825
       H     4.29729   -1.47348    1.91736
       O     3.38261   -1.28802    1.56997
      H1     2.83673   -1.16826    2.37573
       H     4.39083   -2.86918   -9.26407
       O     3.84264   -2.62892  -10.00447
      H1     3.36891   -1.80334   -9.75736
       H     2.46137   -3.97070   -9.50594
       O     2.10575   -4.78821   -9.08815
      H1     1.16660   -4.83504   -9.01993
       H     9.47082    1.27224   -1.90757
       O     9.13545    1.43605   -0.99429
      H1     9.79405    1.86039   -0.42881

