174
frame 9 | Written by MDAnalysis XYZWriter (release 2.4.3)
       H   -13.96674   11.60415   12.08404
       O   -14.50112   10.89677   12.45547
      H1   -15.39844   11.07355   12.08614
       H    -9.22387   14.14841   16.81703
       O    -8.73118   13.36847   17.02310
      H1    -9.02835   13.23933   17.96313
       H    -9.23078   11.06802   14.21853
       O    -9.52831   11.46350   14.99385
      H1    -8.80337   12.07055   15.27431
       H   -11.75080   13.83582   15.22175
       O   -11.89626   12.84829   15.11625
      H1   -11.06361   12.37778   15.31233
       H   -10.23208   19.69176   17.03602
       O    -9.99611   18.73865   17.14703
      H1    -9.59590   18.32800   16.33022
       H   -11.76787   15.15416   19.46448
       O   -12.68527   15.12768   19.17694
      H1   -13.03240   15.96824   19.52237
       H   -14.47865   12.95888   17.13376
       O   -14.43654   12.98985   16.18138
      H1   -13.50980   12.86767   15.97372
       H    -8.39650   16.00074    8.48758
       O    -8.59340   15.60593    7.60947
      H1    -8.92506   16.36023    7.11218
       H   -15.00742   14.67605   15.63079
       O   -15.37141   15.33729   15.05138
      H1   -15.64510   16.10969   15.60852
       H    -5.72035   15.71888   12.64480
       O    -6.03644   15.82020   13.55377
      H1    -6.68290   15.08362   13.69748
       H   -10.24347   16.13486   12.80175
       O    -9.86999   15.34176   12.42985
      H1   -10.62054   14.71267   12.40036
       H    -6.24820   13.29830    8.01420
       O    -6.13880   14.22594    7.78211
      H1    -7.05352   14.60293    7.84224
       H   -13.05819   16.51398    9.43410
       O   -13.87175   16.86762    9.70206
      H1   -13.82508   16.93518   10.65531
       H    -8.82925   17.89380   18.29486
       O    -8.41191   17.34368   19.01217
      H1    -7.76461   16.81801   18.53128
       H   -12.06943   18.32440   16.86043
       O   -12.66159   17.54092   16.91115
      H1   -12.49439   17.18015   17.77218
       H    -8.90990   14.79269   13.86760
       O    -8.25151   14.14203   14.19493
      H1    -8.43813   13.42232   13.64715
       H   -17.00059   16.46955   17.44471
       O   -16.17007   16.98932   17.29218
      H1   -16.31532   17.95870   17.52177
       H   -13.21488   14.82229   12.69222
       O   -14.03105   15.29302   12.73489
      H1   -14.41230   15.17826   13.65517
       H    -4.19902   13.45586   19.38402
       O    -4.15422   12.95457   18.54978
      H1    -3.93640   12.03837   18.88884
       H   -14.92262   11.16935   15.81281
       O   -15.10520   10.41091   15.19258
      H1   -14.96177   10.85013   14.32521
       H    -6.79530   10.39230   17.46376
       O    -7.07314    9.59310   17.97097
      H1    -6.84600    9.90164   18.88525
       H    -5.54510   12.52915   13.23109
       O    -6.25720   12.13590   12.70593
      H1    -5.99330   12.34672   11.78645
       H   -14.26281   17.07945   12.64922
       O   -14.41969   18.00879   12.36148
      H1   -13.90919   18.59197   12.93884
       H   -10.64551   16.23744   15.52721
       O   -11.34681   15.59766   15.56978
      H1   -12.05837   16.13774   15.97742
       H   -11.88555   12.76386   13.11629
       O   -11.83279   13.32569   12.32052
      H1   -11.74777   12.75100   11.56556
       H    -8.23113   17.52523   15.18495
       O    -9.18085   17.40204   14.97463
      H1    -9.49645   17.86159   14.16672
       H   -13.02988   11.25644   18.74561
       O   -13.50677   12.07229   18.87450
      H1   -12.94427   12.86554   18.90991
       H   -11.99251   14.80321    8.39551
       O   -11.45651   15.55454    8.27389
      H1   -10.60043   15.27628    7.84215
       H    -2.23544   16.20808   11.62944
       O    -1.49636   15.81401   11.23641
      H1    -1.82502   15.63042   10.37140
       H    -0.43698   14.44255   17.14332
       O    -0.98114   14.12853   16.48101
      H1    -1.73904   14.74339   16.56292
       H    -9.72494   10.63109   16.72643
       O    -9.82689   10.00040   17.45465
      H1    -8.94330    9.68040   17.76361
       H    -7.20201   15.12201   17.12177
       O    -6.70692   15.80956   17.56693
      H1    -6.42617   16.36977   16.82841
       H    -3.90439   16.92218   11.91919
       O    -3.41915   17.20800   12.73085
      H1    -3.29210   18.19036   12.70654
       H    -1.16635   18.84980   18.26570
       O    -1.71818   18.03370   18.51080
      H1    -1.08475   17.31600   18.56977
       H    -1.52616   19.05473   13.11414
       O    -2.27720   19.63616   12.81576
      H1    -2.36513   20.20717   13.60367
       H    -7.66025    9.53336   13.48064
       O    -8.14163   10.16577   12.97573
      H1    -7.45250   10.80699   12.87823
       H   -16.38504   18.48750   12.91191
       O   -17.28467   18.85184   12.91072
      H1   -17.35955   19.37850   12.10414
       H    -3.48963   11.30245   15.12893
       O    -2.95609   10.47323   15.19130
      H1    -2.06599   10.73489   15.50311
       H   -14.17246   17.99561    8.00925
       O   -14.12380   18.20095    7.03418
      H1   -13.44157   17.57053    6.69516
       H    -4.19568   15.74348   10.14567
       O    -4.96592   16.20705   10.63047
      H1    -5.08255   17.06937   10.20321
       H   -10.11217   18.96443   12.17263
       O   -10.55211   18.30121   12.77089
      H1   -11.44140   18.69531   12.88868
       H   -14.96093   13.78426   11.56637
       O   -15.07933   13.49029   10.70435
      H1   -15.55433   14.22913   10.20201
       H   -17.42152   14.78087   14.43996
       O   -18.36732   14.96057   14.30509
      H1   -18.40985   15.65098   13.62640
       H   -15.87680   19.58567    9.66868
       O   -15.20371   19.74827   10.35643
      H1   -15.06394   18.91091   10.80338
       H    -2.43784   18.28578   16.98716
       O    -2.69210   18.50745   16.06618
      H1    -3.12246   17.69010   15.77842
       H    -3.96704   13.43250   15.16959
       O    -4.46076   12.70513   14.84413
      H1    -5.08134   12.57859   15.58353
       H    -6.47548   17.22507   14.66661
       O    -6.52493   17.63388   15.55757
      H1    -6.11266   18.53853   15.54560
       H   -16.58168   14.98679    8.68974
       O   -16.36931   15.62501    9.38610
      H1   -15.44018   15.85869    9.28304
       H   -11.91429   16.43262    6.89985
       O   -12.25428   16.69322    5.96979
      H1   -12.71392   15.89462    5.69940
       H    -5.33078   13.80314    9.58149
       O    -5.45577   13.08437   10.15879
      H1    -5.69745   12.33755    9.55688
       H    -5.70850   19.32077    9.79036
       O    -6.25547   18.51801    9.73293
      H1    -6.58954   18.41181    8.84595
       H    -7.04024   16.09348   10.53821
       O    -7.94348   16.00621   10.24135
      H1    -8.55724   15.88101   10.99805
       H   -10.26721   12.10895   19.93872
       O    -9.68884   12.18228   19.18189
      H1    -9.84082   11.43827   18.60235
       H    -2.90303   16.09346   14.51780
       O    -3.56081   15.92726   15.19635
      H1    -4.36373   15.90757   14.65353
       H    -9.27257   10.46218    9.90267
       O    -9.30544   11.37358    9.62530
      H1   -10.12808   11.79697    9.91308
       H    -5.57846   12.46011   17.44615
       O    -6.26256   12.04625   16.87313
      H1    -7.00931   12.66461   16.87679
       H   -12.47062   12.15561    9.50887
       O   -11.99593   11.68134   10.16339
      H1   -12.18844   10.72766   10.03091
       H   -13.82392   13.77034    9.52292
       O   -13.31698   13.74665    8.70452
      H1   -13.87651   13.35804    8.08341

