174
frame 11 | Written by MDAnalysis XYZWriter (release 2.4.3)
       H   -16.66800   14.04404   19.18439
       O   -16.21216   13.19214   19.00502
      H1   -15.66411   12.88515   19.71691
       H   -16.23416    5.20625   19.17130
       O   -15.37990    5.78575   19.24632
      H1   -15.17322    6.17446   18.37034
       H   -13.51961   10.63280   11.70597
       O   -14.24877   10.25902   12.20138
      H1   -15.07657   10.65691   11.94005
       H   -10.08190   14.51179   15.84172
       O    -9.50935   13.77773   16.07062
      H1   -10.08473   13.33340   16.66992
       H    -8.81007   11.00078   13.52522
       O    -9.45348   11.70599   13.54938
      H1    -8.87079   12.53117   13.46694
       H   -11.75211   13.70542   14.10461
       O   -11.90955   12.79234   13.96264
      H1   -11.14280   12.42950   13.61072
       H   -10.16593   19.28039   16.65098
       O   -10.22935   18.33497   16.66103
      H1    -9.83635   18.03032   15.82143
       H   -12.13064   14.68460   18.66034
       O   -11.27533   14.24255   18.56825
      H1   -10.66673   14.97366   18.74839
       H   -13.60049   11.97797   16.74658
       O   -13.85955   12.47171   15.93348
      H1   -13.03687   12.52024   15.38547
       H   -15.10610    7.30225   10.93285
       O   -14.47649    7.64962   11.57386
      H1   -14.77867    8.48409   11.89593
       H   -15.66062   13.36729   15.03029
       O   -16.29879   13.93770   14.58478
      H1   -16.98501   14.04674   15.23487
       H   -10.43595   16.87208   11.98050
       O   -10.18118   15.92839   12.08963
      H1   -10.99356   15.43536   11.94416
       H    -8.55353    5.55523   18.63337
       O    -9.21168    5.11157   19.12823
      H1    -9.52225    5.71667   19.82813
       H    -9.54564   17.15731   18.18237
       O    -9.10805   16.52066   18.73724
      H1    -8.62290   15.95086   18.08229
       H   -18.59766   18.12946   17.79670
       O   -18.86790   17.96291   16.85945
      H1   -17.98417   17.84662   16.45171
       H   -13.67344   18.31294   17.00202
       O   -14.10808   19.16109   17.01300
      H1   -13.65288   19.62340   16.35522
       H   -11.72521   17.74449   16.81388
       O   -12.52855   17.16087   16.78053
      H1   -12.58464   16.73678   17.64849
       H   -17.51624    6.24163   16.46959
       O   -16.54892    6.23626   16.57889
      H1   -16.26896    6.32208   15.67796
       H   -15.20385   17.71807   16.35717
       O   -15.99249   17.12173   16.22190
      H1   -15.83800   17.05271   15.29603
       H   -11.48036    7.43580   17.12435
       O   -12.16785    7.71168   17.72637
      H1   -12.11334    7.09169   18.46276
       H   -16.06241    7.85466   17.82213
       O   -15.82052    8.68644   18.24871
      H1   -15.81930    9.37643   17.51885
       H   -13.56633   16.07447   14.22022
       O   -14.45595   15.90636   13.79553
      H1   -14.81945   15.29893   14.39848
       H   -13.17047    7.55563   15.53490
       O   -13.16464    7.30095   14.59040
      H1   -13.10396    6.35554   14.57740
       H   -16.74533   10.36847   14.56721
       O   -17.58180   10.83641   14.59340
      H1   -17.64723   11.25642   15.46565
       H   -14.50505   10.48453   15.17065
       O   -14.93619    9.61472   15.30788
      H1   -14.39708    9.06178   14.70319
       H    -7.39089   10.47444   16.83486
       O    -7.62793    9.70265   17.29415
      H1    -7.47415    9.85786   18.18600
       H   -17.43850    9.06827   18.82315
       O   -18.35895    9.03792   19.17439
      H1   -18.98413    9.20748   18.47112
       H   -16.27431   12.45138   11.78401
       O   -16.80790   11.61471   11.86072
      H1   -17.21895   11.76149   12.75146
       H   -13.85192   17.21086   12.02260
       O   -14.16114   18.11141   11.80155
      H1   -13.49788   18.77179   11.97506
       H   -10.96305   15.93165   14.13961
       O   -11.66114   15.50426   14.62378
      H1   -11.78748   16.05593   15.43008
       H   -12.43208   13.69270   12.33393
       O   -12.53759   14.35815   11.59708
      H1   -12.34803   13.96273   10.75344
       H   -14.32420   14.66279   18.63050
       O   -13.79261   15.34347   19.03992
      H1   -14.28666   16.11423   19.21022
       H    -8.22395   17.00936   14.81284
       O    -9.12681   17.20805   14.48614
      H1    -9.09426   18.00592   13.94703
       H   -13.63955    4.31150   15.85144
       O   -12.71751    4.44548   15.50003
      H1   -12.16713    4.58288   16.23732
       H   -12.99360    9.83474   17.93514
       O   -12.62325   10.70956   17.80264
      H1   -11.85007   10.47662   17.18427
       H   -16.39215    6.15040   13.21542
       O   -15.63965    5.77623   13.74373
      H1   -14.95350    6.45690   13.65193
       H   -10.32318    8.33971   15.74578
       O   -10.07802    7.43660   15.89951
      H1   -10.26566    6.95781   15.11024
       H   -10.18018   10.95977   15.58615
       O   -10.41094   10.29145   16.22095
      H1    -9.65065   10.32262   16.82920
       H    -8.37793   14.49892   16.90907
       O    -7.62715   14.84331   17.46989
      H1    -7.43675   15.60416   16.89184
       H   -19.65684   19.21761   19.63760
       O   -18.82413   18.78473   19.40487
      H1   -18.25059   19.49067   19.04716
       H   -19.22250    7.79655   15.17964
       O   -18.51173    8.15123   14.59592
      H1   -18.44764    9.11673   14.66883
       H   -15.42072   18.52230   13.13844
       O   -16.03288   18.78210   13.86711
      H1   -16.90218   18.43530   13.60387
       H   -18.21925    6.39505   12.03226
       O   -17.71566    7.26126   12.27028
      H1   -17.95020    7.70463   13.08918
       H   -14.71590   14.36726   11.66890
       O   -15.46948   14.03149   11.17347
      H1   -16.16452   14.76515   11.14916
       H   -17.31208   14.70830   13.09927
       O   -18.07789   14.87327   12.55652
      H1   -18.26011   15.83675   12.46554
       H   -19.39580   15.45674   16.22199
       O   -18.78144   14.74563   16.43237
      H1   -18.46956   15.05922   17.35002
       H   -17.09882   12.67447   17.48150
       O   -17.84072   12.25453   17.04276
      H1   -18.40238   12.99411   16.71381
       H   -17.12434   15.95221   19.25485
       O   -17.83709   15.36694   19.03963
      H1   -18.44471   15.41475   19.77688
       H   -15.96988    4.59586   16.67319
       O   -15.30118    3.81286   16.50022
      H1   -15.55109    3.39762   15.61101
       H   -11.31789    3.23942   17.83414
       O   -11.55012    4.14615   18.08195
      H1   -10.71720    4.45945   18.43230
       H   -10.96898   12.45158   19.20146
       O   -10.29104   11.96688   19.71959
      H1   -10.45222   11.05600   19.61424
       H   -18.36039   18.02230   11.47404
       O   -18.45794   17.97608   12.43452
      H1   -18.73385   18.86518   12.64007
       H    -5.93634   12.06430   17.56001
       O    -6.62139   12.11734   16.86827
      H1    -7.13936   12.91177   17.08506
       H    -7.24433    6.71869   17.20088
       O    -7.79419    6.36105   16.44999
      H1    -8.59092    6.90015   16.34136
       H   -19.03594    9.63661   10.54661
       O   -19.38610    9.16855   11.28363
      H1   -18.60404    8.65821   11.58281
       H   -17.97830    5.28713   20.02993
       O   -17.74274    4.79731   19.22320
      H1   -18.45356    5.10464   18.61733
       H   -19.05083   14.35723   10.96648
       O   -19.58942   14.10474   10.25688
      H1   -20.14478   13.49588   10.72219
       H    -5.98190   14.30377   18.61972
       O    -5.42906   13.72759   19.13876
      H1    -6.14839   13.13977   19.50373

