174
frame 9 | Written by MDAnalysis XYZWriter (release 2.4.3)
       H     8.18813   -8.84044  -12.62827
       O     7.48624   -9.51505  -12.83755
      H1     7.88286  -10.13260  -13.48506
       H    16.88828  -18.20505  -13.00883
       O    16.18540  -17.58490  -13.30974
      H1    15.47876  -17.67493  -12.61278
       H    17.33247  -11.00345  -17.08690
       O    18.31039  -11.06536  -17.25992
      H1    18.82007  -10.95807  -16.44146
       H     8.13890   -6.52510  -17.51477
       O     8.86058   -7.04827  -17.88284
      H1     8.70315   -6.89360  -18.82741
       H    11.71033   -9.55208  -11.42694
       O    11.77997   -8.94166  -10.71951
      H1    12.24495   -8.10321  -11.02384
       H     9.13700  -15.82188  -19.71123
       O     9.73257  -15.31979  -19.08554
      H1     9.97759  -14.50774  -19.52558
       H    15.15181  -12.69918  -15.96837
       O    14.73856  -13.48831  -15.56234
      H1    15.26376  -14.22246  -15.85982
       H    14.95169   -5.21112  -13.50123
       O    14.69941   -4.98035  -14.37087
      H1    13.92172   -5.56228  -14.57324
       H     8.63582  -13.72903  -18.62398
       O     8.48275  -13.05694  -17.99286
      H1     7.89523  -12.45415  -18.51959
       H    12.56790  -16.69377  -14.76706
       O    12.86980  -16.91627  -15.64641
      H1    13.56981  -17.52616  -15.71763
       H    10.41353   -6.21868  -17.82198
       O    11.30356   -5.86028  -17.75242
      H1    11.88833   -6.22296  -18.44268
       H    18.43092  -13.31633  -16.58960
       O    18.73772  -13.77921  -15.79797
      H1    19.67880  -13.60820  -15.70289
       H     9.79187   -9.96595  -15.55226
       O    10.32959   -9.51553  -16.25860
      H1     9.76169   -8.78605  -16.50294
       H    11.56295  -13.44677  -10.43021
       O    10.74545  -13.09395  -10.71809
      H1    10.13678  -13.84648  -10.60516
       H    16.72261  -16.61666  -15.47986
       O    16.48553  -15.77784  -15.86324
      H1    17.34725  -15.34985  -15.93889
       H    13.44081  -10.91304  -10.90594
       O    14.15973  -11.35170  -11.41642
      H1    14.24012  -12.19658  -10.97970
       H    12.39608   -9.47364  -16.67592
       O    13.21355   -8.90188  -16.68946
      H1    13.43636   -8.72327  -17.62953
       H    15.36554  -18.94890  -16.02562
       O    14.56432  -19.16787  -16.53448
      H1    14.79109  -19.40316  -17.44635
       H    10.28224  -12.98022  -17.02916
       O    11.23244  -12.95398  -16.87557
      H1    11.53794  -13.78809  -17.17318
       H    13.64723  -18.07836  -10.87276
       O    14.19360  -17.59618  -11.49110
      H1    13.60825  -16.97988  -11.97467
       H    19.85557   -9.35151  -14.75566
       O    19.67041  -10.26962  -14.98756
      H1    18.87786  -10.44467  -14.47313
       H    12.29545  -17.44920  -19.49803
       O    11.43586  -17.57170  -19.09495
      H1    10.98875  -16.70818  -19.14425
       H    17.08362   -4.18154  -17.16384
       O    16.92827   -3.27941  -17.42133
      H1    17.77701   -3.01758  -17.83685
       H     8.62986  -16.07229  -12.20979
       O     8.78878  -15.29300  -11.58179
      H1     8.33661  -15.59169  -10.75540
       H    13.25267  -14.39703   -9.28963
       O    13.42850  -13.77756  -10.01416
      H1    13.59480  -14.37320  -10.75937
       H    13.64051  -15.57793  -18.88239
       O    13.97977  -15.83288  -19.78805
      H1    14.78927  -15.36907  -19.92062
       H    16.74782  -16.94600  -17.55386
       O    17.34884  -17.46028  -18.08613
      H1    18.19476  -17.30919  -17.58820
       H     7.07580   -9.68738  -17.19637
       O     7.36849   -9.71863  -18.13270
      H1     7.70944   -8.84472  -18.24360
       H    10.54802  -11.66403  -12.03119
       O    11.15545  -11.00225  -12.38068
      H1    11.94315  -11.55676  -12.55417
       H    16.05927   -8.15360  -14.59999
       O    15.37084   -8.81400  -14.60010
      H1    14.94625   -8.69856  -15.45667
       H    11.64182  -13.27275  -14.94398
       O    12.30679  -13.42150  -14.24692
      H1    13.07684  -13.23584  -14.80592
       H    15.08140  -17.13473  -10.07199
       O    15.64351  -16.67996   -9.42902
      H1    16.20880  -17.37520   -9.05510
       H    15.56597   -9.04043  -11.79693
       O    15.81048   -8.36720  -11.19429
      H1    15.55523   -8.58642  -10.30522
       H    13.28029   -7.69105  -14.03602
       O    12.86784   -7.05972  -14.54468
      H1    12.96755   -7.46253  -15.41508
       H    11.02598  -17.26173  -16.25077
       O    10.07244  -17.27909  -15.96959
      H1     9.65260  -16.49013  -16.30446
       H    17.72241   -7.83776  -18.63736
       O    18.51643   -7.65040  -18.08036
      H1    19.08907   -8.36918  -18.44504
       H    16.09221  -13.72994  -19.37000
       O    15.49960  -13.48469  -18.68073
      H1    14.94541  -12.78807  -19.09855
       H    18.75514  -10.02778  -11.23581
       O    18.35696   -9.14294  -11.15851
      H1    17.48587   -9.12275  -11.53696
       H    10.62919   -6.84225  -14.19745
       O     9.70837   -6.68519  -14.33629
      H1     9.39871   -6.42370  -13.51868
       H     6.31293  -10.97664  -18.66981
       O     6.07771  -11.83476  -19.12336
      H1     5.57834  -12.33012  -18.49709
       H    15.45451  -10.56044  -15.52223
       O    15.42501  -10.94753  -16.40797
      H1    14.72113  -10.42110  -16.84273
       H    17.66318  -11.18297   -9.07070
       O    17.14314  -11.99325   -9.43610
      H1    16.64016  -11.65142  -10.19016
       H    18.19953   -5.43603  -14.69999
       O    19.00891   -5.17493  -14.28658
      H1    19.63845   -5.57581  -14.94213
       H    16.49703   -6.66578  -16.18858
       O    16.66860   -6.57599  -15.25125
      H1    15.87018   -6.17709  -14.91453
       H    11.06989  -15.88950  -12.47608
       O    11.95757  -15.99098  -12.81583
      H1    12.19223  -15.09378  -13.14378
       H     7.36410  -13.34930  -14.14227
       O     7.73930  -13.22676  -13.27794
      H1     7.91499  -14.14130  -12.97890
       H    19.69644  -17.12191  -15.41117
       O    19.29650  -16.65140  -16.13860
      H1    19.55798  -15.76008  -15.95119
       H     7.57988  -16.67065  -14.55496
       O     7.06203  -15.88521  -14.70229
      H1     6.17398  -16.09608  -14.31587
       H    10.81943  -10.08733  -18.19108
       O    11.02164  -10.67302  -18.97006
      H1    11.36331  -11.52088  -18.45594
       H    16.22513  -14.52554  -12.57034
       O    15.55098  -13.85278  -12.72382
      H1    15.62407  -13.66978  -13.64717
       H    10.19489  -10.78464  -13.97699
       O     9.24041  -10.96284  -14.37673
      H1     9.13593  -11.85094  -14.03276
       H    13.60475  -14.32204  -17.20329
       O    12.92201  -14.97606  -17.47615
      H1    13.11399  -15.72185  -16.84811
       H     7.16922  -17.88239  -18.26697
       O     7.04322  -17.02347  -17.82038
      H1     6.81202  -16.37603  -18.52969
       H    16.81713  -11.86560  -13.20874
       O    17.53244  -11.16886  -13.17489
      H1    18.10363  -11.40310  -12.43818
       H    14.61487   -6.27426  -18.15601
       O    15.28934   -5.93497  -17.53763
      H1    14.88434   -5.44025  -16.90013
       H     7.12229  -13.45043  -16.77004
       O     6.56495  -13.43941  -15.99201
      H1     6.78933  -14.32682  -15.64603
       H    16.79155  -15.88851  -10.81602
       O    17.42716  -15.79987  -11.47707
      H1    17.24742  -16.53463  -12.10314
       H     9.34923  -18.10051  -12.38814
       O     9.00017  -17.58875  -13.15661
      H1     9.78095  -17.40181  -13.69814

