174
frame 0 | Written by MDAnalysis XYZWriter (release 2.4.3)
       H     8.89919    7.90888  -11.02213
       O     9.18687    8.54765  -10.34081
      H1     9.20180    8.21462   -9.45389
       H     3.38967    3.06920  -10.86298
       O     4.08866    2.40505  -10.64528
      H1     4.47192    2.68956   -9.79761
       H     3.12329   15.75427  -16.27078
       O     3.76913   16.07685  -16.94103
      H1     3.51340   17.03185  -17.17650
       H     4.08446   12.21206  -12.29233
       O     4.07699   11.86166  -11.42074
      H1     3.16831   11.77026  -11.16060
       H     2.98089   15.15207  -11.29112
       O     3.13666   15.16735  -12.28053
      H1     2.38096   14.95515  -12.79213
       H     5.39097   15.35508  -16.57471
       O     6.30968   15.18178  -16.40392
      H1     6.40300   14.83584  -15.51232
       H    -0.88250    5.58300  -14.07976
       O    -1.48374    4.93878  -14.50040
      H1    -1.45386    4.21248  -13.80198
       H     4.96331    3.88282  -19.82249
       O     4.74867    3.14102  -19.20103
      H1     4.15507    3.48670  -18.53231
       H    -1.09235   12.05503  -15.42561
       O    -1.25470   12.91393  -14.93604
      H1    -1.36264   13.66473  -15.48622
       H    -0.59842    7.28951  -16.55764
       O     0.33769    7.32599  -16.19849
      H1     0.42541    8.27930  -16.09857
       H     1.59451    9.11132  -18.76148
       O     0.98056    9.78955  -19.03624
      H1     0.92763    9.78895  -20.00951
       H     0.56350    6.88610  -10.07217
       O     0.23037    6.02115  -10.34305
      H1     1.04888    5.47026  -10.44092
       H     1.04442    2.50522  -14.03565
       O     1.55378    2.41073  -13.21998
      H1     0.92595    2.22378  -12.51132
       H     0.60949   10.67951  -15.92253
       O    -0.08021   10.15614  -15.59755
      H1    -0.88830   10.15055  -16.15957
       H     3.51021    8.59232  -11.85551
       O     4.24605    8.89700  -11.26562
      H1     4.20851    9.85965  -11.27859
       H    -0.13003    3.32513  -17.23450
       O    -0.34124    3.53682  -18.17940
      H1     0.51831    3.72110  -18.65723
       H     8.18353   10.57089  -16.82892
       O     8.93289   10.27070  -16.29200
      H1     9.72084   10.72560  -16.61605
       H     6.15018    8.45759  -14.47501
       O     5.84101    8.84784  -15.30382
      H1     6.74405    9.10088  -15.61534
       H     9.16225    6.70743  -13.32139
       O     8.67198    7.40971  -12.88347
      H1     8.83160    8.21394  -13.32281
       H     1.68451   15.07620  -18.76227
       O     2.40301   15.40542  -19.22348
      H1     3.04069   15.92151  -18.69121
       H     3.13009    5.21894  -10.25189
       O     2.61139    4.76522  -10.94538
      H1     2.96645    5.11733  -11.77313
       H     5.68503    6.42283  -17.64615
       O     4.76310    6.09040  -17.48110
      H1     4.19208    6.86937  -17.63206
       H     6.43762    6.37752   -9.07111
       O     6.53382    5.58757   -9.69434
      H1     6.18346    5.75741  -10.61064
       H    -0.24328   11.99189  -12.16706
       O    -1.14228   11.69503  -12.28076
      H1    -1.45560   12.01687  -13.09773
       H     6.94722   14.17603  -17.73376
       O     7.33393   13.62025  -18.42456
      H1     8.19208   13.34996  -18.03465
       H     0.21588    6.16383  -12.11206
       O     0.51937    6.29345  -13.06532
      H1     1.28199    5.73382  -13.33670
       H     7.85256    6.61175  -18.49888
       O     7.73795    6.72927  -17.56989
      H1     8.25591    7.53813  -17.51067
       H    -0.95405   13.84932  -19.02371
       O    -0.35963   14.30993  -18.37988
      H1    -0.99450   14.86667  -17.84926
       H     1.27479   10.27091  -10.41813
       O     1.46440   11.11787  -10.85130
      H1     1.33400   11.77489  -10.21861
       H     1.79520    7.28377  -17.54832
       O     2.58679    7.80699  -17.81572
      H1     2.73345    8.42621  -17.07507
       H     3.82432    8.87166  -15.26293
       O     2.97905    9.12766  -15.66625
      H1     2.38786    9.05107  -14.91948
       H    -1.88546    6.54031  -10.19502
       O    -2.33116    7.34677  -10.50071
      H1    -1.65110    7.84228  -11.04041
       H     2.74126   12.43481  -16.38567
       O     3.19388   12.71166  -15.55436
      H1     4.10615   12.58474  -15.73418
       H     7.77494    5.51277  -16.33184
       O     7.82376    4.64529  -15.88245
      H1     6.90703    4.54259  -15.57582
       H     0.09319    2.29115  -15.68774
       O     0.43956    3.21195  -15.61655
      H1    -0.31424    3.85624  -15.69592
       H     8.80263   10.18656  -14.62569
       O     8.92042    9.91093  -13.65974
      H1     8.36566   10.50804  -13.09266
       H     7.91832   10.27610  -10.96247
       O     7.88925   11.09881  -11.50285
      H1     6.99115   11.50646  -11.47290
       H    -3.08093    7.02587  -16.24202
       O    -3.43230    6.65117  -15.39290
      H1    -2.72481    6.01185  -15.18761
       H     6.52598   11.89286  -17.82481
       O     6.52926   10.97740  -17.43460
      H1     6.34576   10.36570  -18.13416
       H     6.28294   14.51481  -11.43820
       O     6.34926   13.57066  -11.22925
      H1     5.44410   13.27110  -11.33470
       H     3.72964    8.81977   -9.72603
       O     3.42323    8.78219   -8.79856
      H1     3.69464    7.88006   -8.62954
       H    -0.72774   10.20209  -19.00223
       O    -1.63048   10.43262  -19.19389
      H1    -2.03434    9.57321  -19.52155
       H     7.65562    3.64699  -17.57596
       O     7.47551    2.99564  -18.24928
      H1     6.52289    2.83709  -18.20120
       H    -2.54065    7.26541  -18.46433
       O    -1.68367    6.95992  -18.19168
      H1    -1.68962    5.95968  -18.17859
       H     2.32377   13.98801  -14.68307
       O     1.53914   14.44316  -14.46282
      H1     0.86325   13.82456  -14.72042
       H     6.20634   10.83646  -14.62643
       O     6.04345   11.53448  -14.02962
      H1     6.63169   12.30823  -14.24744
       H    -2.86584    8.84645  -13.01458
       O    -3.70947    8.52295  -13.35971
      H1    -3.48806    7.89755  -14.11896
       H     5.18928    5.86202  -15.78238
       O     5.37558    5.41193  -14.92945
      H1     5.89970    5.97257  -14.32620
       H     7.09669    6.91223  -12.24120
       O     6.13262    6.80015  -12.39227
      H1     5.71577    7.59978  -12.10198
       H    -0.78925    9.03835  -13.19155
       O    -1.16633    9.12664  -12.34374
      H1    -1.06240   10.15074  -12.21542
       H     0.51964   12.82225  -17.92511
       O     0.95391   12.05588  -17.47198
      H1     0.88689   11.31692  -18.08016
       H     1.36891    9.12903  -12.52330
       O     1.87788    8.53952  -13.05012
      H1     1.35632    7.75719  -13.04328
       H    -0.02268    8.92514   -8.70718
       O     0.69941    8.61945   -9.27860
      H1     1.53876    8.79299   -8.86346
       H    -2.06644   12.02464  -10.72072
       O    -2.31328   12.09704   -9.76666
      H1    -2.40959   13.06655   -9.67759
       H     7.90861   13.83792  -13.35017
       O     7.80197   13.47742  -14.26492
      H1     8.59458   12.95529  -14.49710
       H     2.88206    4.14268  -13.39892
       O     2.99336    5.07373  -13.42017
      H1     3.84392    5.28270  -13.81960
       H    -4.37634    8.67489  -20.04514
       O    -3.83164    8.59699  -19.21514
      H1    -4.31837    9.07442  -18.51583
       H    -3.72725   10.16961  -16.39318
       O    -2.80193    9.97925  -16.57006
      H1    -2.63534   10.26510  -17.47238

