174
frame 7 | Written by MDAnalysis XYZWriter (release 2.4.3)
       H     8.80005    4.62400  -13.51351
       O     9.13226    4.73796  -12.60765
      H1     8.54936    5.24937  -12.08341
       H     8.77381    8.58170  -12.82964
       O     9.78615    8.57785  -12.96910
      H1    10.09163    8.22604  -12.08567
       H     2.54339   10.89892   -2.42767
       O     2.59420   10.09310   -2.94391
      H1     2.78121    9.38673   -2.35045
       H     2.31493    5.49645  -10.83225
       O     2.92404    4.80832  -10.69397
      H1     3.29707    4.94033   -9.77967
       H     3.38550   12.31990   -6.65490
       O     3.93761   13.01212   -6.97980
      H1     3.49251   13.89289   -6.85976
       H    -0.48519    8.98383   -4.88695
       O    -0.76746    8.72641   -5.78435
      H1    -0.62553    9.44525   -6.38807
       H     0.32501    4.39110   -6.11791
       O    -0.01182    4.24707   -7.00220
      H1     0.76688    3.80727   -7.49505
       H     1.05312   12.69761  -13.15916
       O     1.39219   12.52908  -12.28411
      H1     0.59562   12.18157  -11.81323
       H     9.51377   11.12553   -8.03575
       O     9.84063   12.03602   -8.27583
      H1     9.63025   12.56249   -7.49753
       H     7.60207   12.58079   -5.86421
       O     8.49314   12.74579   -5.54528
      H1     8.37559   13.60213   -5.09469
       H     4.35387    6.72355   -5.17037
       O     3.55174    7.31815   -5.27869
      H1     3.35280    7.28959   -6.22168
       H     1.25920    9.72057  -10.00045
       O     0.62815    9.30063  -10.63529
      H1    -0.24629    9.64531  -10.38940
       H     5.90153    5.82919   -3.78467
       O     5.32269    5.42782   -4.48499
      H1     4.55236    4.98597   -4.01406
       H     4.29769    9.39922  -11.60890
       O     5.19574    8.97490  -11.33169
      H1     5.90393    9.57453  -11.65767
       H     4.76690    4.58299   -8.02780
       O     3.83333    4.73411   -8.25388
      H1     3.35668    3.93193   -8.02091
       H     1.05171    3.90521   -9.84471
       O     1.32989    3.23110   -9.20309
      H1     0.86386    2.46094   -9.43296
       H     5.37762   13.60235  -13.66921
       O     5.84724   13.01926  -13.04523
      H1     5.42547   13.27067  -12.16830
       H     1.58430   14.07640   -6.24392
       O     1.47753   14.45045   -7.12849
      H1     1.64430   13.70997   -7.73508
       H    -0.66890    6.01104   -7.94398
       O    -0.63606    6.96792   -8.09336
      H1    -0.83969    7.32780   -7.20753
       H     0.80381    7.43515  -10.77409
       O     0.84203    6.56026  -11.20723
      H1     1.05274    6.77722  -12.12043
       H     2.29997   10.48903   -5.01431
       O     2.08401   11.10777   -5.72368
      H1     1.16519   11.31688   -5.56422
       H     2.89360    7.37361   -0.96020
       O     3.29575    7.64190   -1.78927
      H1     3.03072    7.02314   -2.45692
       H     4.44483    6.44144  -13.09209
       O     4.80867    5.62243  -12.70760
      H1     4.30715    5.45083  -11.93707
       H     7.54371    6.75289  -10.27859
       O     7.54063    5.93951  -10.80063
      H1     6.67727    5.97799  -11.27710
       H    10.32858    8.90622   -8.79407
       O    10.53069    8.72845   -9.72882
      H1    10.80346    7.79400   -9.78140
       H     2.09305    7.05317  -14.07981
       O     1.18729    6.70987  -13.87089
      H1     1.20838    5.79263  -14.25918
       H     5.04392   11.69011   -4.01827
       O     5.03124   10.75875   -3.84941
      H1     4.13581   10.54593   -3.65980
       H    -1.15371   10.83397   -8.11689
       O    -0.38197   10.64815   -7.55026
      H1     0.31653   10.47225   -8.19791
       H     5.29402   14.80608  -10.69613
       O     4.63559   14.12614  -10.82325
      H1     3.97802   14.28887  -10.16916
       H     1.13340    9.49961  -15.76327
       O     2.02787    9.61483  -15.38342
      H1     1.84993    9.56779  -14.42278
       H    -1.43267    8.05757   -9.05754
       O    -1.99523    8.64148   -9.67881
      H1    -2.71245    9.04745   -9.14766
       H     6.49624    3.88043   -6.28438
       O     6.42703    4.37041   -7.14469
      H1     7.12677    4.98152   -7.14138
       H     3.14893    1.86447  -12.56294
       O     2.90825    1.80212  -11.60489
      H1     2.94938    2.74330  -11.26748
       H     5.18457    4.51676  -13.79043
       O     5.46611    3.93701  -14.51786
      H1     6.26137    4.28541  -14.95853
       H     9.71853    9.16873   -6.53624
       O     9.39902    9.30384   -7.44607
      H1     8.70382    8.68408   -7.68654
       H     6.54169    2.02968   -9.27345
       O     7.26684    2.67336   -9.25398
      H1     6.91143    3.48936   -8.90018
       H     8.81689    6.00701   -6.27984
       O     8.91718    5.64513   -7.14937
      H1     9.77096    5.15256   -7.15636
       H     8.23745    6.76657   -8.13164
       O     7.65501    7.44907   -8.55857
      H1     6.74320    7.42516   -8.31419
       H     6.35665   10.88733   -7.68723
       O     6.34091   11.84521   -7.41933
      H1     5.39995   12.06127   -7.39711
       H     3.85819    2.18006   -5.44216
       O     3.24582    2.48374   -6.12074
      H1     2.37667    2.23330   -5.73307
       H     7.24572   11.08390  -11.04716
       O     7.12021   10.76984  -11.93174
      H1     6.58438   11.51982  -12.25537
       H     2.50887    6.41774   -4.18757
       O     2.27115    5.82846   -3.47788
      H1     1.37866    6.16231   -3.25720
       H     1.72634   13.17754  -10.61371
       O     1.92071   13.40313   -9.69785
      H1     1.97405   14.38078   -9.75399
       H     5.10099    8.76973   -9.34345
       O     4.91519    8.37895   -8.45752
      H1     4.17893    7.74968   -8.50912
       H     5.22288    8.30438   -5.14361
       O     6.08512    8.61501   -4.90523
      H1     5.92194    9.45891   -4.50516
       H     5.94300    7.01532   -2.12975
       O     6.59208    7.11948   -2.77761
      H1     6.20557    7.77322   -3.40803
       H     6.48796   11.02075  -15.36176
       O     5.75461   10.44595  -15.11857
      H1     5.85812   10.32166  -14.11302
       H     5.83679   12.85442  -10.05219
       O     6.81989   12.68909   -9.97871
      H1     6.91136   12.43752   -9.07935
       H     6.88787    6.96690  -14.00023
       O     7.00225    7.84469  -13.68665
      H1     6.26482    7.96207  -13.06024
       H    -1.07713    7.52902  -12.78269
       O    -1.38914    8.45823  -12.96821
      H1    -1.21308    8.90297  -12.11446
       H     8.78436    3.49685   -5.04616
       O     7.92582    3.46553   -4.56512
      H1     7.54137    4.33077   -4.75223
       H     2.69118   10.65253  -13.07871
       O     2.63069    9.78202  -12.76192
      H1     1.78575    9.85889  -12.22170
       H     2.85724   10.55965   -8.16620
       O     2.24653   10.83385   -8.88883
      H1     2.36801   11.79651   -8.87664
       H     2.89523    6.24752   -7.85000
       O     2.43735    7.13137   -7.79860
      H1     1.53234    6.89949   -8.02172
       H     4.15417    7.68803  -15.33249
       O     3.69983    7.53807  -14.47994
      H1     3.48839    8.40366  -14.12700
       H     0.86407    9.60017   -3.18601
       O    -0.07788    9.65632   -3.34312
      H1    -0.30224   10.46957   -2.78696
       H     9.73301    7.97991   -4.87156
       O    10.24218    8.77996   -4.83421
      H1     9.62859    9.36297   -4.43344
       H     9.28538    5.98518   -3.94608
       O     8.70734    6.60027   -4.48357
      H1     7.92200    6.83517   -3.98824

