174
frame 1 | Written by MDAnalysis XYZWriter (release 2.4.3)
       H     7.97019    5.11754   -8.91606
       O     8.86923    5.04474   -8.54920
      H1     8.84994    4.25578   -7.97106
       H     8.30599   -0.08246   -0.22019
       O     7.75671   -0.82726   -0.44244
      H1     8.25952   -1.54456   -0.02288
       H     7.13390    3.50152    4.83915
       O     7.84062    2.83207    4.79338
      H1     7.58319    2.22994    5.55825
       H    14.97934    4.80886    2.08847
       O    15.20267    4.33601    1.25288
      H1    15.24888    3.40532    1.52107
       H    11.92743    4.33361   -5.80018
       O    12.19080    4.34850   -4.84477
      H1    12.76426    5.14698   -4.75362
       H     4.67209    5.87934    1.86970
       O     4.67001    5.13008    1.34543
      H1     3.72749    4.92647    1.17512
       H    14.25665    9.52009    1.97898
       O    14.73947    8.70411    2.05024
      H1    14.88814    8.45589    1.12444
       H     7.41138    9.48983   -4.85591
       O     7.01542   10.12097   -4.23983
      H1     6.07243    9.99542   -4.34352
       H    14.74672    3.20682   -3.62161
       O    15.23983    3.90107   -3.20668
      H1    15.51419    4.37896   -3.99708
       H    10.86283    8.35214   -1.68608
       O    10.50804    9.23694   -1.47944
      H1    10.75475    9.61059   -0.60376
       H    12.08266    2.86500   -1.04001
       O    12.07428    3.83152   -1.00593
      H1    13.00245    4.20208   -1.12210
       H     5.96994    4.88487    4.08142
       O     5.50142    4.74976    4.90783
      H1     5.94388    5.28998    5.62151
       H     8.58701   10.07384   -1.45125
       O     7.76241   10.48900   -1.52922
      H1     7.60469   10.47965   -2.45040
       H    12.96549    5.52214    4.81568
       O    12.90306    4.82127    4.13639
      H1    11.97671    4.68404    4.01880
       H     9.85628    7.86248    4.78170
       O    10.26035    6.99019    4.71852
      H1    10.53716    6.95503    3.73503
       H     5.13666    2.98773    1.12467
       O     5.51455    2.22696    0.72554
      H1     6.04277    2.47334   -0.02658
       H    10.43041    1.86583   -7.38649
       O     9.50222    2.26439   -7.23421
      H1     8.89812    1.76520   -7.86923
       H     4.86456    6.14993   -4.28483
       O     4.60455    5.77799   -5.13307
      H1     3.73330    5.30269   -5.01734
       H     9.73178   11.46349    1.32768
       O    10.32138   11.14723    0.63084
      H1    10.26004   11.80097   -0.07959
       H     4.23754    2.18907   -2.57284
       O     4.30137    1.21213   -2.71123
      H1     3.82786    0.91225   -1.85799
       H    10.44251   -0.55890    1.46137
       O    10.06315   -1.42336    1.32655
      H1    10.64187   -2.07344    1.82620
       H     3.44190    7.50217    0.49794
       O     4.04897    8.03328    0.00250
      H1     4.36733    7.50439   -0.74021
       H    12.73695   11.09684   -2.94938
       O    12.28511   10.34012   -3.35208
      H1    11.56161   10.19022   -2.69556
       H    10.68974    4.92168    1.52090
       O    10.34188    4.05514    1.22767
      H1    10.82630    3.80965    0.45964
       H    10.08116    8.08858   -7.46311
       O    10.47862    7.36023   -7.97949
      H1     9.86392    6.59786   -7.93491
       H     8.20655    6.85706    4.30011
       O     7.45149    6.74450    3.71489
      H1     7.61374    7.28309    2.91165
       H     5.37619    9.09618    0.45333
       O     6.15805    9.59512    0.75060
      H1     6.67657    9.90169    0.01937
       H     7.48769    8.35820    0.97134
       O     8.17405    7.75691    1.19342
      H1     7.85620    6.86435    0.99771
       H     6.26908    1.63212    2.15337
       O     6.33521    1.40387    3.07498
      H1     6.90077    2.06177    3.51383
       H     9.35931    1.21894   -3.95768
       O    10.19868    0.88258   -3.52469
      H1    10.99908    1.25263   -3.90355
       H    13.39173    1.02341   -0.91035
       O    12.45904    1.14977   -1.22736
      H1    12.07207    0.28394   -1.09640
       H    11.42511    1.09161    2.30924
       O    10.58103    1.40714    1.98238
      H1    10.59328    2.39599    2.01762
       H    12.49673    2.87970   -4.17135
       O    12.81013    1.93651   -3.93574
      H1    12.55859    1.59786   -3.04969
       H     5.65997    4.50164   -5.54011
       O     6.22852    3.79655   -5.95125
      H1     6.88187    3.48091   -5.29013
       H     8.53804    7.77578   -5.71041
       O     7.96230    8.40748   -6.17582
      H1     7.38753    7.92954   -6.77003
       H    12.44635    6.42270   -2.61804
       O    11.64661    6.91708   -2.47306
      H1    11.11983    6.71850   -3.24072
       H     9.18332    4.87093   -3.19653
       O     9.57318    4.46708   -4.01926
      H1    10.45821    4.11354   -3.86476
       H     6.26959    2.69858   -2.02081
       O     7.09276    2.89709   -1.58634
      H1     7.74347    2.21632   -1.77922
       H     8.05930   -0.97230   -2.23942
       O     8.27503   -1.08880   -3.15723
      H1     9.08866   -0.59445   -3.40964
       H     5.77393    7.47777   -2.82653
       O     4.81187    7.28392   -2.79223
      H1     4.44826    8.01538   -3.25639
       H    13.73229    9.88600   -5.78658
       O    13.09701    9.17221   -5.76609
      H1    12.78993    9.30360   -4.84517
       H     3.44560    4.32633   -2.35289
       O     4.34452    4.10199   -2.15993
      H1     4.96649    4.82227   -2.17230
       H     7.87310    6.72348   -2.26681
       O     7.48395    7.16111   -3.07710
      H1     7.92258    8.08998   -3.11413
       H     9.89497    7.18429    1.66644
       O    10.75350    6.84523    1.94250
      H1    11.40502    7.51524    1.71666
       H    16.28621    7.52282   -0.20638
       O    15.47017    7.97188   -0.36263
      H1    14.84203    7.31818   -0.71016
       H    13.66415    9.20685   -3.08091
       O    14.56470    8.86198   -2.95511
      H1    14.55731    8.61363   -2.01311
       H    14.80014    6.27157   -5.14300
       O    14.06548    6.46787   -4.48755
      H1    14.28170    7.33059   -4.08267
       H    12.62706    4.93616   -7.86322
       O    11.88855    4.39913   -7.56950
      H1    11.52228    4.17588   -8.40869
       H     8.75022    2.31278   -5.65401
       O     8.25485    2.28172   -4.78398
      H1     8.56161    3.01539   -4.24577
       H     4.10255    1.16814    0.36655
       O     3.28733    0.87585   -0.06677
      H1     2.98335    0.20336    0.52752
       H     5.74146    7.54881    3.16932
       O     5.01586    7.78299    2.60868
      H1     5.29935    8.22635    1.79452
       H    12.85763   10.82517    3.11227
       O    12.85910   11.06470    2.17498
      H1    11.98239   10.92046    1.78789
       H     9.95969    6.05801   -4.79118
       O    10.08121    7.01266   -4.88427
      H1    10.50060    7.14937   -5.77565
       H    14.87995    5.12514   -1.58622
       O    14.34094    5.59562   -0.96314
      H1    14.58627    5.19092   -0.14350
       H     6.68306    4.86164    0.86517
       O     7.59156    5.14267    0.87876
      H1     8.14395    4.52735    1.35276
       H    10.42240    2.13521    4.53889
       O    10.51231    3.00097    4.89584
      H1     9.59566    3.33639    4.92474
       H     9.77823    6.10926   -1.01708
       O     9.13193    5.58333   -1.45934
      H1     8.82870    4.97478   -0.77383
       H     9.89677    1.62867   -1.31311
       O     9.39442    1.38581   -0.51394
      H1     9.92368    1.69060    0.19138

