174
frame 0 | Written by MDAnalysis XYZWriter (release 2.4.3)
       H    -6.51489   13.50935   16.22719
       O    -5.99279   14.23564   16.58415
      H1    -6.56659   14.69801   17.16754
       H    -6.70709   11.79192   14.44923
       O    -7.02731   12.02691   15.32440
      H1    -7.92115   11.64999   15.23399
       H    -9.93888   13.22973   15.38106
       O    -9.46397   13.68788   14.71454
      H1    -9.12051   14.47646   15.09929
       H   -11.26422   19.48376   19.07147
       O   -10.79505   18.72424   18.81842
      H1   -10.13414   18.95621   18.14389
       H   -10.04058   16.30994   15.97738
       O    -9.09692   16.05188   15.98946
      H1    -8.79006   16.75467   15.38941
       H   -11.70977   10.35120    9.82615
       O   -12.05047   11.18092    9.50916
      H1   -11.35532   11.81547    9.69325
       H    -4.83495   18.66191    5.15821
       O    -5.72164   18.45268    4.82866
      H1    -5.57150   18.08064    3.92557
       H    -7.98969   16.73037    4.70319
       O    -8.75701   16.75159    4.13872
      H1    -8.77416   15.92494    3.61729
       H    -8.57629   19.71096    9.30964
       O    -8.51515   19.14091   10.09222
      H1    -7.59153   19.27424   10.36615
       H     0.70659   19.15664   12.79603
       O     1.18842   19.46248   13.58755
      H1     1.56531   18.60922   13.93143
       H   -11.01769   16.62754    9.46773
       O   -10.41792   17.02495    8.84218
      H1    -9.55903   17.07034    9.31356
       H    -9.01682   13.26784    7.20109
       O    -8.68774   14.10096    7.52878
      H1    -9.09034   14.73148    6.92293
       H   -13.04925   15.51270    4.31937
       O   -12.60988   16.36405    4.16480
      H1   -11.83732   16.34076    4.72611
       H   -14.52348   18.70808   13.18885
       O   -14.72566   19.65311   13.06129
      H1   -13.89956   20.13802   13.18582
       H    -5.93296   10.66617   10.08113
       O    -5.64315   11.54521   10.40460
      H1    -5.76661   11.57619   11.40117
       H    -9.01878   18.94588    6.23966
       O    -8.15183   18.95902    6.54383
      H1    -7.52470   19.18814    5.80041
       H    -1.55813   14.82963    7.61560
       O    -1.63971   15.78054    7.50679
      H1    -2.45509   15.87080    6.88162
       H    -8.06713   13.82250   12.97850
       O    -7.14079   13.90396   12.65308
      H1    -7.11671   14.06197   11.70313
       H   -12.82684   12.26931   12.31928
       O   -12.05983   12.90647   12.37696
      H1   -12.34694   13.64246   11.82852
       H   -10.89766   14.67125   14.47926
       O   -11.83581   14.91029   14.53318
      H1   -12.29898   14.15347   14.12227
       H   -13.98619   18.92791    4.15642
       O   -13.46555   19.58813    4.69268
      H1   -13.44244   20.29820    4.06224
       H    -9.89497   18.29765    3.15729
       O   -10.41383   19.07529    3.41376
      H1   -10.43985   18.88640    4.35708
       H   -14.63845   17.03167    8.72742
       O   -14.57777   16.23011    8.11096
      H1   -15.15799   15.59322    8.61155
       H    -2.09661   12.30769   11.33292
       O    -1.55138   13.08242   11.13124
      H1    -1.60222   13.11447   10.17666
       H   -12.84414   17.82635   11.69232
       O   -13.21192   17.13863   11.06670
      H1   -13.72925   17.64667   10.43190
       H   -13.22447   17.61517   15.35846
       O   -13.33147   17.13556   14.52690
      H1   -12.79583   16.33882   14.60147
       H    -9.54516   12.61014   10.82021
       O    -9.92663   13.05068   10.02778
      H1    -9.22219   13.55430    9.65018
       H    -6.22807   16.81747   14.68077
       O    -6.53472   17.62985   15.08241
      H1    -5.94808   18.30994   14.67155
       H   -10.24742   16.34266    7.07482
       O   -10.24922   15.82325    6.22746
      H1    -9.86436   16.38004    5.55564
       H    -2.38495   16.69159   10.97961
       O    -2.49924   16.84918   10.06038
      H1    -1.93386   16.27626    9.51519
       H    -6.41097   17.32998   17.32319
       O    -5.94853   17.01156   18.08449
      H1    -5.44245   17.81166   18.32690
       H    -3.59168   16.08898   13.33921
       O    -2.74820   16.35828   12.96984
      H1    -2.19893   16.37841   13.76357
       H    -5.67359   10.41311   12.91457
       O    -5.62730   11.33429   13.06980
      H1    -4.67879   11.49542   13.23795
       H    -5.52826   19.81007   11.27437
       O    -5.66194   19.68244   10.35663
      H1    -4.94657   19.14750   10.04793
       H   -11.71949   18.42220    5.42819
       O   -11.01683   18.77107    5.98807
      H1   -11.47967   19.36946    6.59912
       H    -5.74637   14.76958   13.72204
       O    -5.18705   15.41275   14.17192
      H1    -5.30994   15.14243   15.11125
       H    -0.22062   19.01101    9.03838
       O    -0.05364   19.14295    8.09757
      H1    -0.73458   18.67247    7.57174
       H    -9.29566   18.17179   11.38366
       O    -9.49160   17.46109   12.03812
      H1   -10.39451   17.49093   12.20280
       H   -15.76039   16.43593   12.83905
       O   -15.84918   17.12780   12.16656
      H1   -15.02982   17.35338   11.64892
       H    -6.76553   17.57689    1.68908
       O    -5.92157   17.56118    2.25409
      H1    -5.12798   17.81886    1.73673
       H   -15.49441   18.89628    9.01577
       O   -14.62308   18.81935    9.47314
      H1   -13.99462   19.26884    8.90628
       H    -4.46266   16.64462   16.92396
       O    -3.56725   16.42087   16.71980
      H1    -3.14316   16.07627   17.54408
       H   -11.19345   18.79779    8.72317
       O   -11.52840   19.67820    8.77627
      H1   -10.70463   20.24340    8.92618
       H    -9.00921   18.00019   13.55582
       O    -8.93376   18.31884   14.46099
      H1    -8.04989   18.14780   14.76131
       H     0.66605   17.16200    5.57672
       O    -0.32681   17.02327    5.66854
      H1    -0.52751   16.49307    6.42805
       H    -7.55378   13.90377    8.90127
       O    -7.21575   13.81382    9.78747
      H1    -6.76236   12.97459    9.79411
       H    -3.90079   17.35427    8.96977
       O    -4.57799   17.93303    8.56361
      H1    -4.32052   18.03392    7.65860
       H    -6.12761   17.02490    8.77659
       O    -7.06206   16.76089    8.80529
      H1    -6.94446   15.92033    9.31758
       H    -2.00473   19.22440   14.20264
       O    -2.46342   19.08034   13.34840
      H1    -2.55666   18.14339   13.31877
       H    -3.38833   20.00440    6.47381
       O    -3.29177   19.06830    6.15741
      H1    -2.62193   19.12953    5.46402
       H   -12.19550   18.13246   13.55582
       O   -11.87104   18.70817   12.79523
      H1   -11.87768   19.62973   13.04233
       H    -6.12611   17.11196    5.93796
       O    -6.58235   16.27436    6.17355
      H1    -6.85057   16.28764    7.10563
       H    -8.40143   14.92834   17.46188
       O    -8.29654   14.60351   18.35785
      H1    -9.09547   15.01945   18.74271
       H    -2.13643   16.91034   16.00765
       O    -1.27433   17.10418   15.64800
      H1    -1.17933   18.02352   15.87066
       H   -10.39956   10.50613   11.56981
       O   -10.10482   11.08542   12.27684
      H1   -10.86202   11.78068   12.39199
       H   -12.80100   14.82387    7.24446
       O   -12.47368   14.21124    6.60013
      H1   -11.69661   14.62628    6.22739
       H    -4.95334   15.71000    5.83952
       O    -4.00544   15.70462    5.86884
      H1    -3.60778   15.19973    5.08279
       H    -6.60888   13.69919    5.79401
       O    -5.89752   13.01743    5.80074
      H1    -6.47650   12.21962    5.96762

