174
frame 11 | Written by MDAnalysis XYZWriter (release 2.4.3)
       H     2.76833   15.58240  -10.71678
       O     1.98386   15.08406  -10.54355
      H1     1.24770   15.71183  -10.55436
       H     2.31224   14.65195  -15.53919
       O     3.19801   14.47738  -15.42228
      H1     3.52763   14.28585  -16.29718
       H     4.12495   17.99916  -15.40563
       O     3.59964   17.42793  -14.84831
      H1     3.69256   16.53950  -15.11360
       H    -8.74220   18.16139   -7.17378
       O    -8.73523   18.24618   -6.19167
      H1    -9.60652   18.54340   -5.90535
       H    -5.22762   14.10963  -10.58786
       O    -4.70455   13.33963  -10.65765
      H1    -4.60974   13.07677  -11.54981
       H    -5.64020   16.46771  -16.89515
       O    -5.44158   16.00847  -16.11322
      H1    -4.48779   15.95683  -15.99646
       H    -2.34091   16.17673  -12.79853
       O    -2.83101   16.90729  -13.13269
      H1    -2.43097   17.13587  -14.00142
       H    -4.12234   18.26297  -13.60372
       O    -4.59611   19.13040  -13.76499
      H1    -5.41358   19.01146  -13.31793
       H     2.73045   16.78783   -3.33783
       O     3.32565   16.25683   -3.90919
      H1     2.88173   15.42318   -4.04365
       H     4.93996   16.34722  -11.21630
       O     4.26904   16.13879  -11.84665
      H1     4.19840   17.05647  -12.21301
       H    -5.42878   19.38686  -15.60808
       O    -5.22250   19.79589  -16.45206
      H1    -5.94963   19.55854  -17.04681
       H     0.13901   15.28663  -14.36463
       O     0.56510   15.04269  -15.18583
      H1     0.18373   14.17519  -15.33614
       H    -2.04851   18.33169   -5.26278
       O    -1.21944   18.01184   -4.91036
      H1    -0.69434   17.89118   -5.72499
       H     0.00265   12.45817  -12.25526
       O    -0.74490   12.01328  -12.70710
      H1    -1.28948   11.56764  -12.07373
       H     2.15288   14.00344  -12.01942
       O     2.01600   13.10589  -12.36433
      H1     1.76854   13.34488  -13.28777
       H     4.95414   14.78429  -12.98364
       O     5.39261   14.17312  -13.62564
      H1     4.79464   14.30351  -14.43643
       H     0.33171   15.74567  -18.45041
       O     0.51961   16.37271  -17.72902
      H1     0.54696   15.75409  -16.99487
       H     4.48174   18.37181  -13.01622
       O     4.89749   18.64106  -12.18380
      H1     5.83103   18.63988  -12.25576
       H    -1.65581   18.37499  -10.25340
       O    -1.72918   17.92321   -9.40174
      H1    -2.65505   17.70131   -9.26644
       H    -2.21069   15.37680   -3.45268
       O    -1.58580   16.04274   -3.07148
      H1    -1.46569   16.67252   -3.81987
       H    -0.98775   17.69295  -15.25122
       O    -1.87666   17.67444  -15.70006
      H1    -1.70850   17.67814  -16.63607
       H    -2.96427   13.42507  -14.41818
       O    -2.08353   13.38443  -14.85838
      H1    -1.42687   12.85387  -14.32077
       H     0.36114    9.09670  -12.93300
       O     1.07723    9.73106  -12.63077
      H1     0.66271   10.62634  -12.56748
       H    -7.44336   15.31626  -11.40725
       O    -8.23292   15.84126  -11.30623
      H1    -8.20715   16.24757  -10.43341
       H    -9.76513   18.11026  -13.37987
       O    -9.50970   17.98414  -12.46262
      H1    -9.00570   17.17613  -12.52491
       H     5.65284   16.21099   -8.88564
       O     6.02799   16.27434   -9.78733
      H1     6.70909   15.59939  -10.06404
       H    -8.69326   18.51764   -9.68470
       O    -8.46658   17.93805   -8.94067
      H1    -9.14170   17.24402   -8.94663
       H     4.89975   13.27841  -11.19149
       O     4.46509   12.43671  -10.93624
      H1     3.73439   12.41566  -11.53277
       H     0.59770   15.07848   -5.38988
       O     0.22289   15.28037   -6.25977
      H1     0.85652   14.74445   -6.79494
       H    -6.04470   10.69333   -9.56465
       O    -5.62070   11.33417   -9.00578
      H1    -5.20342   12.02851   -9.52748
       H     2.07142   17.82385  -10.51327
       O     1.61549   17.91705  -11.33868
      H1     0.86049   18.51801  -11.21255
       H     1.70918   17.88038  -14.55584
       O     0.78970   18.14252  -14.25188
      H1     0.87838   18.23772  -13.23526
       H    -4.65810   12.09076  -13.87699
       O    -4.44531   12.92308  -13.46323
      H1    -5.28863   13.34949  -13.53453
       H    -8.70287   16.45368   -5.96667
       O    -8.81071   15.46312   -5.81753
      H1    -7.94258   15.07784   -5.89958
       H    -6.29748   19.26573  -11.37932
       O    -7.04569   19.44007  -11.99578
      H1    -7.53441   18.54407  -12.12057
       H     4.21289   16.71430   -7.38035
       O     5.07022   16.45664   -7.18412
      H1     5.52951   17.28581   -6.93994
       H    -6.58720   16.66602  -14.70879
       O    -7.27199   16.54383  -14.07176
      H1    -7.94100   16.06792  -14.56356
       H    -1.64428    9.41521  -10.98330
       O    -2.20718   10.20806  -11.19798
      H1    -2.48300   10.55494  -10.31226
       H    -4.06720   15.69177   -5.53801
       O    -4.75313   16.30868   -5.24931
      H1    -4.52101   16.34040   -4.27523
       H    -6.50585   15.18480   -8.67277
       O    -6.10525   15.45064   -9.55146
      H1    -5.44781   16.09694   -9.14285
       H     5.84763   19.66244   -9.34272
       O     6.86192   19.69882   -9.41278
      H1     7.11338   18.97472  -10.03611
       H    -2.47180   10.82807   -6.48866
       O    -1.64332   11.21735   -6.19642
      H1    -1.40268   11.87213   -6.90799
       H    -6.47804   13.62107   -6.70106
       O    -6.32564   14.59758   -6.81568
      H1    -5.82010   14.91303   -6.05640
       H    -4.32459   18.01473  -17.56025
       O    -3.68538   17.74027  -18.20477
      H1    -3.26111   18.56504  -18.54489
       H    -2.49441   13.04940  -16.69263
       O    -2.41290   12.85763  -17.68087
      H1    -2.85881   13.64790  -18.08939
       H    -7.57553   13.59394  -13.04603
       O    -6.74309   14.15161  -13.02748
      H1    -6.90959   15.04297  -13.40657
       H     0.07025   13.23151   -8.82916
       O     1.02083   13.34877   -8.62866
      H1     1.38101   13.85430   -9.34746
       H     1.82938   17.71988   -8.05427
       O     2.61661   17.47437   -8.51510
      H1     2.99960   18.31423   -8.71695
       H     1.17421   13.52486   -3.48447
       O     1.73246   13.54754   -4.23553
      H1     1.41268   12.79131   -4.76451
       H    -4.02684   19.45628   -4.82883
       O    -3.73371   18.81793   -5.48794
      H1    -4.28964   18.00933   -5.43074
       H    -2.69660   14.02508   -5.45621
       O    -2.68276   14.62540   -6.22473
      H1    -1.73419   14.86599   -6.30152
       H    -0.98581   14.36253  -12.91358
       O    -0.61535   15.23564  -12.74757
      H1    -0.64462   15.27269  -11.79297
       H    -3.42743   13.14116   -3.89088
       O    -2.49799   13.38896   -3.94775
      H1    -2.08085   12.55103   -4.13633
       H     1.13017   10.82613   -7.65906
       O     0.93961   10.75177   -8.60555
      H1     1.10315   11.69131   -8.83582
       H    -2.60962   13.07450   -9.58414
       O    -1.95519   13.24315   -8.85762
      H1    -2.48178   13.58379   -8.13105
       H    -1.22820   14.76511   -9.41717
       O    -0.84741   15.45980   -9.95740
      H1    -1.25208   16.32869   -9.77586
       H    -4.68484   18.54364   -9.12016
       O    -4.42766   17.64425   -8.77116
      H1    -4.80309   17.56654   -7.91045
       H     0.42789   16.74469   -7.00404
       O     0.22765   17.63169   -7.33434
      H1    -0.59448   17.57647   -7.89581

