174
frame 4 | Written by MDAnalysis XYZWriter (release 2.4.3)
       H    18.63485  -16.85033  -11.48073
       O    17.89476  -16.57865  -12.09315
      H1    18.26846  -15.78551  -12.40965
       H    16.70562  -10.78595  -16.14312
       O    17.63022  -10.90614  -16.28969
      H1    18.00734  -10.08534  -15.86415
       H    10.30287   -8.62408  -16.09478
       O    10.36159   -8.88181  -17.00744
      H1    10.26423   -8.01640  -17.45774
       H    15.98467   -5.90390  -19.78444
       O    16.93572   -5.92652  -19.40789
      H1    16.85203   -6.03311  -18.46742
       H     9.23594  -15.57535  -17.65323
       O    10.08855  -15.55184  -17.17219
      H1    10.80063  -15.62717  -17.76781
       H    11.59100  -17.74446  -16.24473
       O    12.09428  -17.80052  -15.42618
      H1    11.63391  -17.17073  -14.87852
       H    16.35572  -14.18093  -14.23947
       O    15.45984  -14.41083  -13.88933
      H1    15.27149  -15.31811  -14.08981
       H    17.05092   -5.19105  -14.32392
       O    16.54803   -6.05546  -14.26814
      H1    15.80381   -5.85736  -13.72074
       H    14.68073   -5.01301  -15.39706
       O    14.52040   -5.05383  -16.31984
      H1    13.54408   -4.96618  -16.30288
       H     9.93088  -12.88470  -18.32920
       O     9.74620  -12.04604  -18.72335
      H1     8.77989  -12.04296  -18.77587
       H    13.68760  -17.29765  -15.14626
       O    14.57140  -16.92043  -15.01629
      H1    14.95560  -17.54993  -14.44730
       H    18.68296  -18.45510  -19.06181
       O    19.26282  -19.00919  -19.61453
      H1    20.07712  -18.87592  -19.10915
       H    11.93708   -4.69750  -14.45678
       O    11.97573   -5.32669  -15.21005
      H1    11.43055   -6.04901  -14.90999
       H    17.89393  -12.51906  -15.52696
       O    17.75669  -13.35870  -15.05302
      H1    18.33195  -13.97477  -15.52817
       H     8.57345  -10.34426  -13.47489
       O     9.00611  -10.05890  -14.30945
      H1     8.36710  -10.05811  -14.96753
       H    13.22698  -11.23724   -9.90284
       O    13.24752  -10.99597   -8.92441
      H1    14.19409  -10.81366   -8.80614
       H    14.36768  -12.58212  -12.46518
       O    14.55145  -12.36314  -11.56741
      H1    15.39535  -12.81916  -11.47557
       H    12.25802   -9.88264  -17.09212
       O    12.95824   -9.95208  -17.74618
      H1    12.62601   -9.39596  -18.49992
       H    16.06346  -12.41630  -19.12746
       O    16.35745  -13.32850  -19.24081
      H1    16.17665  -13.77348  -18.39228
       H    14.34869  -10.63441  -18.72416
       O    15.13509  -10.84935  -19.27348
      H1    15.54532   -9.99917  -19.41683
       H    13.51156  -19.05751   -9.70635
       O    13.94348  -19.32898  -10.54237
      H1    13.16771  -19.36516  -11.14623
       H    18.68165   -7.91739  -14.45817
       O    18.90100   -8.51112  -15.20588
      H1    19.03490   -7.82496  -15.87512
       H    17.80030   -4.49369  -19.43637
       O    17.95820   -3.57674  -19.14263
      H1    18.69311   -3.62467  -18.50909
       H    19.17310   -7.17179  -11.91249
       O    19.27833   -6.18961  -11.75280
      H1    18.42034   -5.96234  -11.36480
       H    12.20845  -14.41848  -19.25955
       O    12.41818  -15.16986  -18.67384
      H1    13.25559  -14.98688  -18.24741
       H     8.10596  -17.75363  -16.19398
       O     8.03825  -18.65800  -15.86189
      H1     8.09501  -19.08903  -16.68565
       H    17.41055  -20.05092  -16.47368
       O    17.15500  -19.12494  -16.28729
      H1    17.91159  -18.93489  -15.69274
       H    19.61379  -12.92617   -9.20123
       O    19.37521  -13.49203   -9.98408
      H1    19.11925  -14.36653   -9.64458
       H    12.82669  -16.88268  -18.75136
       O    12.59664  -17.88198  -18.64251
      H1    13.43679  -18.34588  -18.88168
       H    14.21827  -13.93543   -8.42789
       O    13.99613  -14.18161   -9.35294
      H1    13.70336  -13.34164   -9.82755
       H    18.19330  -16.85074  -18.34313
       O    17.51530  -17.59867  -18.35476
      H1    17.55725  -18.00310  -17.49072
       H     6.75433   -8.86640  -16.71014
       O     7.61437   -9.31663  -16.57036
      H1     8.31168   -8.87675  -17.04682
       H    11.31117  -11.59959  -10.62967
       O    11.79503  -11.13857  -11.31548
      H1    11.86745  -11.83968  -12.00660
       H    14.00449  -10.24764  -13.91441
       O    14.01140   -9.49732  -13.28111
      H1    13.68287   -9.90782  -12.47188
       H    12.80605  -12.22561  -14.88163
       O    13.36759  -12.41699  -14.13003
      H1    13.92012  -13.21488  -14.28730
       H    15.92189  -15.09194   -9.67012
       O    16.23653  -15.94532   -9.91597
      H1    16.81898  -15.76773  -10.68277
       H    12.68689   -6.66396  -12.80166
       O    12.21737   -7.43938  -13.08030
      H1    12.97268   -8.08340  -13.22947
       H    10.56681  -14.64423  -14.18481
       O    10.22709  -15.51564  -14.51198
      H1    10.20759  -15.41231  -15.50635
       H     9.27829   -6.04108  -18.77375
       O    10.04716   -6.64737  -18.94558
      H1     9.95558   -6.86069  -19.86815
       H    19.03051   -9.61466  -12.51000
       O    18.60926   -8.81481  -12.27357
      H1    17.68752   -9.07689  -12.13831
       H    10.38299   -7.50700  -13.92031
       O     9.81001   -7.22299  -14.68033
      H1     8.95702   -7.59273  -14.40127
       H     7.34277  -10.55958  -17.63848
       O     7.03653  -11.40895  -18.08189
      H1     6.56088  -11.79286  -17.36066
       H    14.09746  -10.50702  -16.43880
       O    14.83437  -10.27818  -15.81922
      H1    15.04754   -9.31236  -15.85702
       H    16.74007  -10.38761   -8.98909
       O    15.91036  -10.76672   -9.18563
      H1    15.93628  -10.75058  -10.15334
       H    16.32074   -7.41137  -16.07601
       O    15.62329   -7.75835  -16.63840
      H1    14.97085   -7.06866  -16.57051
       H    12.02200  -14.33028  -12.07825
       O    11.42574  -13.67308  -12.45196
      H1    11.85838  -13.22458  -13.18661
       H     9.22897  -13.46315  -12.41221
       O     8.62074  -13.35641  -11.67105
      H1     9.12252  -13.73136  -10.91116
       H    18.15428  -12.96498  -11.17257
       O    17.30611  -12.82345  -11.66911
      H1    17.54188  -12.98964  -12.58840
       H    18.16263  -10.87452  -17.94203
       O    18.53967  -10.56332  -18.76843
      H1    19.22239  -11.22962  -19.04973
       H    10.40900  -10.85000  -14.98232
       O    10.96920  -11.42043  -15.51869
      H1    10.75522  -11.13966  -16.38533
       H    15.39493  -16.62845  -11.67297
       O    14.73531  -17.21900  -12.10849
      H1    14.45331  -17.85431  -11.41278
       H    15.14214  -15.39883  -16.47420
       O    15.18416  -15.14922  -17.42262
      H1    15.44099  -15.95433  -17.88544
       H     8.32788  -17.50542  -18.59873
       O     7.85500  -16.76960  -18.19746
      H1     7.05244  -16.72237  -18.68468
       H    16.40025  -11.02418  -12.08207
       O    16.23348  -10.07713  -11.81670
      H1    15.54216   -9.81858  -12.45575
       H    19.82899   -5.81773  -16.73438
       O    19.14413   -6.42201  -17.05692
      H1    19.54786   -7.04555  -17.67840
       H     8.62137  -16.13008  -13.83873
       O     7.86725  -16.67237  -13.67635
      H1     8.26258  -17.53896  -13.44974
       H    17.94941  -18.53768  -11.76085
       O    18.36236  -19.33355  -11.44210
      H1    17.74310  -19.68237  -10.75129
       H    12.90834  -15.27933  -10.18543
       O    12.43156  -15.70834  -10.94107
      H1    13.10354  -16.18100  -11.51461

