174
frame 5 | Written by MDAnalysis XYZWriter (release 2.4.3)
       H    -3.62217    2.82625   -2.27314
       O    -3.74615    2.19053   -3.01351
      H1    -4.68560    2.02280   -3.03168
       H    -7.92714    5.09828   -6.33142
       O    -7.43200    4.28013   -6.10934
      H1    -8.01078    3.68879   -5.51841
       H   -11.40687    7.04751   -5.20397
       O   -10.38917    6.88595   -5.33872
      H1    -9.83587    6.91913   -4.50896
       H    -7.10996    6.36043   -8.22348
       O    -7.90278    6.45782   -7.62976
      H1    -8.58875    6.00232   -8.13767
       H   -13.98691    2.21059   -6.55262
       O   -13.32633    1.53278   -6.39722
      H1   -12.54872    1.80479   -6.91636
       H   -10.12768   -1.40265  -11.20298
       O   -10.30945   -0.54196  -11.60553
      H1   -10.99983   -0.56108  -12.24362
       H    -4.89546   -2.59345   -7.66553
       O    -4.22403   -1.85191   -7.70741
      H1    -4.38873   -1.42848   -8.57811
       H   -10.48487    4.66735   -7.87767
       O   -10.15196    5.18329   -8.63005
      H1    -9.83009    4.50133   -9.21518
       H    -7.41444    2.04427   -3.64685
       O    -6.63643    2.20188   -3.08175
      H1    -6.74984    1.49156   -2.38591
       H   -11.73925    3.85116   -5.69181
       O   -11.01330    4.29629   -6.13189
      H1   -10.91789    5.17263   -5.72200
       H    -6.83736    9.33172   -7.54208
       O    -7.06910    8.83977   -6.74052
      H1    -7.44934    8.02686   -7.12514
       H    -4.24312   -0.51539   -6.35484
       O    -4.41495    0.15820   -5.68349
      H1    -3.48663    0.48573   -5.48846
       H    -8.73289   10.11595   -8.99858
       O    -9.11059    9.28135   -9.34743
      H1    -9.80155    9.05122   -8.69769
       H    -9.83939   -1.77681   -9.00685
       O    -8.98921   -2.09876   -9.21502
      H1    -8.55077   -1.26275   -9.31214
       H    -1.62247    3.99215   -8.25431
       O    -2.09710    4.68310   -8.74684
      H1    -1.79345    4.38176   -9.58801
       H    -8.17403    1.32722   -5.75319
       O    -8.56227    1.71497   -4.92917
      H1    -9.51439    1.82102   -5.05712
       H    -4.73673    7.47416   -5.23309
       O    -4.95327    8.39590   -5.11048
      H1    -5.66096    8.59075   -5.76348
       H    -3.06253    7.73772   -9.98261
       O    -3.86226    7.29940  -10.37621
      H1    -4.12284    7.73242  -11.14502
       H    -4.43871    5.90380   -3.40418
       O    -4.28630    6.07730   -2.47204
      H1    -4.45734    5.24400   -2.01672
       H   -12.02117    2.25770  -10.77623
       O   -12.06610    1.30845  -10.51071
      H1   -11.21278    0.92330  -10.79144
       H    -6.97762    1.44838   -7.20575
       O    -6.96254    0.50950   -6.87131
      H1    -6.17224    0.45375   -6.32906
       H   -10.73565    6.73995  -12.04843
       O   -10.42919    7.01103  -12.93574
      H1    -9.77668    6.32901  -13.15541
       H   -12.61842    5.16783  -10.59727
       O   -12.61692    4.31829  -11.13850
      H1   -13.32415    4.43511  -11.77283
       H    -7.78719    0.75686  -12.77943
       O    -8.04808   -0.13486  -12.93601
      H1    -8.89520   -0.28718  -12.46428
       H    -7.10347    3.29055   -9.06341
       O    -6.92353    2.84618   -8.21208
      H1    -7.19109    3.39149   -7.49518
       H    -5.80082    9.62234   -9.40713
       O    -5.85297   10.40495   -8.89151
      H1    -5.06304   10.93891   -9.04457
       H   -13.03870    6.52310   -6.57417
       O   -13.30677    6.22877   -7.46203
      H1   -12.62249    6.75975   -7.93936
       H    -6.68006    8.75548  -11.90800
       O    -6.89350    9.38865  -12.62329
      H1    -7.88970    9.34478  -12.66132
       H   -11.29792    3.90651  -12.30130
       O   -10.56789    3.40237  -12.71257
      H1   -10.02069    4.14054  -13.14525
       H    -1.35945   -0.13044   -5.08743
       O    -1.50195    0.77491   -5.41824
      H1    -1.27805    1.29806   -4.65476
       H    -9.63935    3.12167  -11.23644
       O    -9.21233    3.16036  -10.36216
      H1    -9.93151    2.80545   -9.76288
       H   -12.02252    7.44488  -10.16051
       O   -11.36067    6.75238  -10.43223
      H1   -11.08784    6.36338   -9.58179
       H    -6.50441   -2.50905  -11.79480
       O    -5.94370   -1.70672  -11.70345
      H1    -6.51720   -1.00980  -12.06635
       H    -5.32276    5.29736   -5.50867
       O    -4.45452    5.66453   -5.21291
      H1    -3.94212    4.89221   -5.31757
       H    -6.23932   -0.89157   -2.91895
       O    -6.57279   -0.42533   -2.16584
      H1    -6.89422   -1.15413   -1.61645
       H   -11.13807    0.39392   -1.64247
       O   -11.79894    0.37427   -2.35475
      H1   -11.71230    1.18520   -2.86564
       H    -3.76226    3.80762  -11.22212
       O    -3.36450    4.69813  -11.49725
      H1    -3.83614    5.38926  -10.95473
       H    -3.49258    1.34694  -11.74420
       O    -2.94014    0.77632  -12.27976
      H1    -2.52185    0.20008  -11.64612
       H   -10.00733   -0.66441   -6.33488
       O   -10.53254   -0.64241   -7.10184
      H1   -11.43491   -0.89866   -6.88727
       H    -5.71522   -1.44325   -5.01349
       O    -5.93455   -2.21665   -4.42854
      H1    -6.62638   -2.73443   -4.80779
       H    -5.00679    1.40159  -10.07598
       O    -4.66866    2.10682  -10.71157
      H1    -5.41786    2.17699  -11.35761
       H    -1.76189   -0.53011   -9.33648
       O    -1.56412   -1.38598   -9.78272
      H1    -1.58608   -2.13688   -9.14430
       H    -7.62697    4.58884   -1.26321
       O    -8.09439    4.27876   -2.04153
      H1    -7.50989    3.65370   -2.47375
       H    -4.69571    6.39595   -9.11828
       O    -5.50636    5.87078   -8.84342
      H1    -5.30755    5.02981   -8.40301
       H   -11.52249    8.66229   -7.25209
       O   -10.90287    8.04711   -7.69824
      H1   -10.37878    7.55104   -7.00215
       H   -12.70528    2.46108   -4.47372
       O   -11.88075    2.53842   -4.05765
      H1   -12.05625    3.29434   -3.41937
       H    -6.73669    7.10911  -10.07227
       O    -6.85869    8.02756  -10.25286
      H1    -7.74411    8.37560   -9.99158
       H    -6.28350    0.08811   -8.51459
       O    -5.69280    0.01889   -9.29514
      H1    -6.15140   -0.52700   -9.98242
       H    -3.61542    3.92334   -8.28626
       O    -4.27964    3.52606   -7.73436
      H1    -5.03447    3.41287   -8.33186
       H    -6.96735    7.69016   -2.29812
       O    -6.29957    8.08281   -1.71977
      H1    -5.52958    7.51061   -1.77289
       H    -7.66395    2.78789  -12.30021
       O    -6.88056    2.23610  -12.50211
      H1    -6.70520    2.28733  -13.43840
       H   -11.71041    1.93533   -8.62997
       O   -10.97559    2.02084   -7.99405
      H1   -10.62951    1.10926   -7.83945
       H    -8.29209    4.83199  -14.30277
       O    -8.64813    5.16385  -13.45609
      H1    -8.03244    5.77304  -13.01771
       H    -8.39467    6.03879   -3.03286
       O    -8.52648    7.05619   -3.14969
      H1    -8.94601    7.21734   -2.28351
       H    -2.66352    2.95955   -4.22656
       O    -2.24232    3.67280   -4.74370
      H1    -1.76185    4.23732   -4.14157
       H    -7.37417    9.39851   -3.81717
       O    -8.08398    9.73437   -4.43021
      H1    -7.77588    9.37847   -5.24701
       H    -9.66567    3.72943    0.56402
       O    -9.14155    3.05813    0.03513
      H1    -8.72084    3.51874   -0.75870
       H    -1.85000    0.93257   -7.44700
       O    -1.94139    1.19414   -8.39076
      H1    -2.84745    1.53781   -8.43364

