174
frame 8 | Written by MDAnalysis XYZWriter (release 2.4.3)
       H    -5.41028    5.23449  -16.47184
       O    -5.80116    6.05936  -16.11959
      H1    -5.41013    6.14568  -15.23380
       H    -5.14955    6.49433   -7.32589
       O    -5.21586    5.64359   -6.82081
      H1    -6.05951    5.69761   -6.44169
       H     2.86099    4.60521  -10.92577
       O     3.30820    3.80924  -10.63327
      H1     3.63372    4.06159   -9.78606
       H    -0.44565    8.03912   -5.31715
       O    -1.02747    7.80256   -6.06959
      H1    -1.35683    8.72102   -6.24644
       H    -0.43340    5.09295   -6.61007
       O     0.08151    5.22989   -7.42927
      H1    -0.35056    4.70086   -8.08364
       H     1.07029   12.58926  -12.80997
       O     0.87684   12.99711  -11.96847
      H1     0.12186   12.42126  -11.63295
       H     0.10837    6.62853  -12.42091
       O    -0.89238    6.50467  -12.30606
      H1    -0.87665    5.69712  -11.83024
       H    -2.81103    7.37759  -10.25642
       O    -3.65060    6.95953  -10.41473
      H1    -3.94304    7.33424  -11.23834
       H    -4.65169   13.07710  -15.19499
       O    -4.83967   12.25109  -15.56971
      H1    -4.67188   11.50673  -14.96192
       H    -1.65187   12.59207  -13.98712
       O    -1.69813   13.39907  -13.45007
      H1    -0.72948   13.55187  -13.23684
       H    -5.85550    7.38341  -13.17847
       O    -5.43991    6.54939  -12.89978
      H1    -4.58472    6.54570  -13.29645
       H    -2.32582    7.47701  -17.61318
       O    -2.48665    7.94909  -16.73563
      H1    -2.87556    8.85258  -16.93205
       H     1.70733    9.55667  -10.17251
       O     1.51448    9.16765  -11.01929
      H1     0.61724    8.85672  -10.81822
       H     1.34679    2.86957  -15.47198
       O     1.05492    3.65657  -14.89352
      H1     0.93179    3.40141  -13.99422
       H    -1.45407   10.04609  -14.26535
       O    -1.46242   10.94076  -14.74238
      H1    -2.01862   10.78362  -15.49366
       H     4.17075    9.64683  -11.90810
       O     4.99035    9.50133  -11.33505
      H1     5.67648   10.07855  -11.81166
       H     0.28654    4.35293  -17.69031
       O     0.55932    4.41540  -18.59023
      H1     1.34954    5.01722  -18.63845
       H     4.62450    4.01499   -7.63610
       O     3.71959    4.14958   -7.96036
      H1     3.19130    3.39499   -7.76436
       H    -0.42716    2.80950   -9.15148
       O     0.43529    3.16705   -9.17512
      H1     0.49726    3.55663  -10.10356
       H     4.55386    3.23435  -14.72947
       O     4.40780    2.26397  -14.64853
      H1     5.23102    1.75696  -14.74211
       H     0.53906    6.69291   -8.09126
       O     0.57742    7.66914   -8.26742
      H1     0.09713    7.98001   -7.45321
       H     2.35799    7.27048  -11.07937
       O     2.63894    6.38660  -11.26057
      H1     2.76051    6.50728  -12.23904
       H    -5.40751   11.11602  -12.71623
       O    -5.34989   11.92804  -12.17827
      H1    -5.69036   12.54562  -12.83727
       H     1.13418    8.47948  -19.11355
       O     0.19720    8.46096  -19.38666
      H1    -0.30359    7.91618  -18.83883
       H     4.28802    5.72155  -12.00182
       O     5.20880    5.61084  -12.32373
      H1     5.41554    4.68714  -12.14286
       H    -1.41091   11.19358  -10.69315
       O    -1.23945   11.09130  -11.66300
      H1    -1.68366   11.80747  -12.05643
       H     2.49555    6.75497  -14.67293
       O     1.89130    6.34231  -14.02787
      H1     1.65855    5.53235  -14.42675
       H     1.31342    2.61406  -12.00422
       O     0.58248    3.24855  -12.04837
      H1    -0.26844    2.74702  -12.16268
       H    -1.30551   11.22449   -7.01051
       O    -0.49304   10.71953   -6.80661
      H1    -0.06193   10.62454   -7.69127
       H    -0.55419    7.79589  -16.05627
       O     0.27960    8.10071  -15.63859
      H1     0.63901    7.41209  -15.04435
       H     0.87527    0.08143  -10.14269
       O     1.55524    0.13954  -10.83442
      H1     1.86612    1.05614  -10.84683
       H     1.26842    9.60982  -16.41919
       O     2.03446    9.95721  -16.97488
      H1     2.76558    9.70585  -16.34119
       H    -0.87613    8.21949   -9.07428
       O    -1.51774    8.61365   -9.65851
      H1    -2.02056    9.09186   -9.00863
       H     3.89857    1.71032  -13.02698
       O     3.56349    1.57291  -12.11754
      H1     3.65069    2.44106  -11.60943
       H    -2.81198    3.92757  -11.05014
       O    -2.51018    4.54115  -10.38784
      H1    -3.09979    5.30594  -10.36044
       H     5.08870    5.09789  -14.30779
       O     4.45765    4.97211  -15.01837
      H1     4.90366    4.95862  -15.83419
       H    -3.79318   10.57476   -7.54281
       O    -3.26780    9.76743   -7.47177
      H1    -3.46831    9.45418   -6.55760
       H    -1.78538    1.44841  -13.57894
       O    -1.09015    1.35374  -14.30524
      H1    -0.48008    0.62246  -13.98167
       H    -1.72113    3.77930  -16.70612
       O    -1.09766    4.39706  -16.34207
      H1    -0.84805    4.02250  -15.51780
       H    -3.20993    6.70542  -15.21840
       O    -3.19071    5.94866  -14.62008
      H1    -2.36383    5.53680  -14.82049
       H    -2.42208    1.27050  -11.45026
       O    -2.74021    1.94596  -12.10043
      H1    -3.66606    2.10717  -12.11087
       H    -1.75653    0.58090   -9.33896
       O    -1.52302    0.05953  -10.16529
      H1    -2.33596   -0.39753  -10.41403
       H    -1.88225    0.35865  -17.00514
       O    -2.54485    0.20524  -16.29209
      H1    -2.19047    0.63612  -15.48100
       H    -2.82488    2.24794  -16.92306
       O    -2.98364    3.00294  -17.54337
      H1    -3.94446    3.14231  -17.48409
       H    -4.85620    7.71455   -9.06304
       O    -5.20812    7.92207   -8.18617
      H1    -4.45247    8.55219   -7.87837
       H    -2.60517    5.57158  -18.99178
       O    -1.80591    6.07008  -18.84658
      H1    -1.06245    5.47706  -18.67747
       H     1.61407   12.39060  -15.12539
       O     1.00303   12.15957  -14.40912
      H1     0.33771   11.52680  -14.70892
       H    -6.20392    9.18749   -9.06901
       O    -6.32975   10.08892   -9.42497
      H1    -7.29507   10.24507   -9.39943
       H    -4.35128    9.16871  -13.81172
       O    -4.87850    9.70226  -14.41867
      H1    -5.74130    9.27933  -14.21101
       H    -2.10899    7.96544  -12.38828
       O    -2.72527    8.69614  -12.62786
      H1    -2.20996    9.53316  -12.42381
       H    -3.37796    4.77117   -7.45645
       O    -2.80183    4.05783   -7.73331
      H1    -2.66101    4.24133   -8.67636
       H     2.38048   10.61038  -13.61829
       O     2.95882    9.86347  -13.28207
      H1     2.43581    9.32230  -12.71032
       H    -4.93691    2.77123  -10.37743
       O    -5.21605    2.81034  -11.28783
      H1    -5.59115    3.68246  -11.31762
       H     2.05304   10.27852   -7.66069
       O     1.69312   10.55252   -8.52500
      H1     2.13552   11.42414   -8.67665
       H    -7.25575    4.23412  -13.80432
       O    -7.35970    4.67470  -12.98699
      H1    -6.65811    5.38564  -13.00877
       H     3.65784    6.11583   -7.51834
       O     3.42257    7.04284   -7.32549
      H1     2.47470    7.15976   -7.55754
       H     4.60992    8.42688  -15.59033
       O     3.63473    8.49549  -15.39220
      H1     3.56952    9.07966  -14.59511
       H    -2.00518    0.98796   -6.89178
       O    -1.72695    1.45051   -7.66270
      H1    -2.37598    2.18494   -7.61139

