174
frame 12 | Written by MDAnalysis XYZWriter (release 2.4.3)
       H     9.12597    5.52226  -14.73863
       O     8.86804    5.38741  -13.85312
      H1     8.83681    6.31891  -13.49342
       H    13.17567    9.93991  -12.18172
       O    13.04395   10.89156  -12.40550
      H1    13.97042   11.26174  -12.61015
       H    14.08395    4.86007  -17.78761
       O    14.88197    5.05985  -18.27770
      H1    15.12406    4.24897  -18.76003
       H    13.10755   12.00770  -15.52559
       O    13.16538   12.88536  -15.13191
      H1    14.10520   13.09173  -15.18969
       H    13.57069    1.21748  -14.06819
       O    13.91929    0.49043  -14.58723
      H1    14.84860    0.69165  -14.57455
       H    14.07552    1.24999  -18.76597
       O    14.19723    1.33344  -17.78492
      H1    13.61282    0.71730  -17.35486
       H     8.03942    2.57806  -16.12508
       O     7.49533    2.42277  -16.95965
      H1     7.63000    1.48439  -17.10729
       H    12.71215   13.78551  -20.27472
       O    13.08301   14.04415  -19.39006
      H1    13.54385   13.24417  -19.04113
       H    14.45717    8.07904  -16.28407
       O    15.25398    8.51484  -16.39666
      H1    15.87076    7.83836  -16.09566
       H    13.08923    4.05777  -10.24008
       O    13.89281    4.53150   -9.83996
      H1    14.46271    4.70948  -10.55970
       H    11.07127    0.67738  -17.29839
       O    10.96683    0.09804  -16.48962
      H1    10.18589   -0.40546  -16.71026
       H    17.25065    0.77847  -15.24058
       O    16.41551    1.29127  -15.23473
      H1    16.27634    1.52135  -16.15412
       H    18.57823    4.96614  -19.60199
       O    18.89958    4.10180  -19.13561
      H1    19.35123    4.47381  -18.37999
       H    16.96932   11.17317  -15.08042
       O    17.59703   11.82853  -15.40296
      H1    17.70927   11.64667  -16.35752
       H    12.95447    6.93727  -14.87018
       O    13.18454    6.70172  -15.77469
      H1    13.49307    5.78394  -15.74430
       H    14.14686    7.53434  -12.66570
       O    13.32367    7.01931  -12.88319
      H1    12.61701    7.38777  -12.35255
       H     8.22291    5.80366  -16.69992
       O     9.15772    5.61470  -16.61529
      H1     9.68001    6.38932  -16.73872
       H    10.05029    1.42272  -15.29562
       O     9.51340    2.20609  -15.08381
      H1     8.78619    1.89912  -14.58791
       H    13.78807   -1.05346  -16.19500
       O    13.16575   -1.27101  -16.86172
      H1    12.36732   -0.72218  -16.60501
       H    16.13539   -3.09184  -12.76572
       O    16.40993   -2.22937  -13.05751
      H1    16.33389   -2.35076  -14.04410
       H    15.36570    9.65678  -15.28962
       O    15.26733   10.31139  -14.60561
      H1    14.34075   10.45124  -14.57832
       H    17.10036    9.81797  -18.53475
       O    17.77550   10.31810  -18.06294
      H1    18.42581   10.46401  -18.78287
       H    18.48989   -0.25602  -13.93022
       O    18.58993   -0.23200  -14.88216
      H1    19.47584   -0.41956  -15.13290
       H     8.27645    8.57145  -12.54879
       O     8.71412    7.97593  -13.18512
      H1     8.61804    8.40380  -14.13226
       H    10.15992   11.60592  -16.14877
       O     9.71163   11.07657  -15.47668
      H1     9.74302   11.59001  -14.71002
       H    11.46181    8.29130  -18.15242
       O    11.44303    7.37782  -17.75973
      H1    12.29773    7.30458  -17.35073
       H    13.95291   -3.25725  -19.31171
       O    14.82997   -2.88725  -19.15045
      H1    15.19562   -3.40169  -18.38289
       H    10.27146    4.45214  -17.32386
       O    11.06271    3.97464  -17.72525
      H1    11.15567    4.47177  -18.55980
       H    15.35817   -2.91050  -16.36378
       O    15.75597   -2.11061  -15.94693
      H1    16.52814   -1.85569  -16.49671
       H    11.09151   10.56157  -19.39640
       O    11.60380   10.04414  -18.76786
      H1    12.50728   10.08951  -19.14920
       H     9.17013    3.68750  -11.63395
       O     9.96184    4.17033  -11.70928
      H1     9.86467    4.59843  -12.59613
       H    17.75037    6.00340  -12.08553
       O    18.68591    5.85365  -11.82828
      H1    18.99645    5.21060  -12.48419
       H    15.43694    9.01638  -11.20421
       O    15.30857    8.65025  -12.11369
      H1    15.46706    9.37566  -12.76500
       H    18.67151   -1.99865  -17.38026
       O    18.05821   -2.42548  -18.01527
      H1    17.78774   -1.73824  -18.62605
       H    16.62980    4.80493  -14.92174
       O    16.73130    4.05323  -14.35266
      H1    16.56070    3.26929  -14.88577
       H    13.65850    3.79834  -13.65298
       O    13.64600    2.98487  -13.15185
      H1    14.50928    2.96845  -12.69006
       H    17.72524    0.50065  -19.05314
       O    17.57552   -0.22720  -19.68174
      H1    16.62344   -0.25874  -19.91130
       H    10.44693    8.84344  -12.24385
       O    11.22960    8.70683  -11.74001
      H1    10.97913    8.31575  -10.89712
       H     7.53955    8.47061  -15.94691
       O     8.49844    8.56505  -15.80598
      H1     8.79930    9.53674  -15.95826
       H    18.05371    4.24096  -11.06587
       O    18.33993    3.37275  -10.79033
      H1    17.59768    2.83854  -11.07266
       H    13.76037    3.09981  -16.73660
       O    13.30072    3.75368  -16.23697
      H1    12.36893    3.74381  -16.54542
       H    15.62186   12.38325  -17.23751
       O    15.02624   12.29354  -18.05216
      H1    15.61898   12.57534  -18.76765
       H     7.22850    5.34279  -19.08637
       O     6.76885    6.00710  -18.56370
      H1     6.43356    5.48829  -17.78526
       H    19.66607    7.72547  -17.01330
       O    18.98310    8.10477  -16.48879
      H1    18.78586    8.89834  -17.00960
       H    10.54804    2.34817  -18.33073
       O    10.59841    1.53662  -18.88705
      H1    11.54725    1.42277  -19.14053
       H    16.21110    1.40342  -11.93824
       O    15.90532    2.25403  -11.62898
      H1    15.51677    2.00927  -10.80454
       H    15.68236    8.08425  -17.99482
       O    15.79825    7.78929  -18.88846
      H1    15.22936    7.01927  -18.93234
       H    11.51451   10.42960  -15.72550
       O    12.31551   10.49391  -16.28527
      H1    11.95334   10.31157  -17.19394
       H    14.71627   -2.12359  -13.26707
       O    13.75449   -1.84490  -13.30144
      H1    13.76431   -0.96841  -13.71264
       H    17.72294    5.99998  -16.34352
       O    16.79789    6.05479  -16.29664
      H1    16.42900    5.67802  -17.10456
       H    12.64170    2.77146  -11.79779
       O    12.09296    2.81761  -10.99748
      H1    11.25834    3.22125  -11.35870
       H     7.88603    7.89522  -18.96795
       O     8.54103    8.44337  -18.58591
      H1     8.59088    8.04633  -17.70280
       H    11.34386   -3.13829  -17.28163
       O    11.91023   -3.47753  -18.00493
      H1    12.53921   -2.74098  -17.91756
       H    15.01133    5.89645  -12.33511
       O    15.55594    5.19905  -12.07182
      H1    15.69358    4.60676  -12.78268
       H    18.81156    1.69241  -17.51370
       O    17.97093    1.88784  -17.93704
      H1    18.20778    2.74264  -18.32673
       H    18.64594    4.01425  -13.90254
       O    19.55758    4.33965  -13.78196
      H1    19.95489    3.60996  -13.17751
       H     7.09420   -1.38293  -19.16164
       O     7.60021   -0.52065  -19.08366
      H1     8.48954   -0.82360  -19.31555
       H    14.40897   10.73496  -19.16473
       O    14.36796    9.99833  -19.81508
      H1    14.81740    9.25136  -19.42525

