174
frame 4 | Written by MDAnalysis XYZWriter (release 2.4.3)
       H    17.40016    3.99726    6.00461
       O    17.31795    3.46117    6.76700
      H1    16.35429    3.36515    6.84458
       H    16.86630    5.45608    4.88254
       O    17.78816    5.06471    4.83053
      H1    18.32490    5.60808    5.47131
       H     6.91781    7.56801   12.44158
       O     7.70481    7.12310   12.03452
      H1     7.88164    7.76148   11.38185
       H    16.67277    5.82897   11.38251
       O    15.99477    6.51973   11.06158
      H1    15.10800    6.31901   11.44305
       H     6.60123    3.92599   10.14977
       O     5.69900    3.60790   10.12598
      H1     5.62357    2.82156   10.59454
       H     7.42810    3.66068    4.27942
       O     8.06470    2.91364    4.34147
      H1     7.73352    2.45596    5.12770
       H    13.19066    4.19478    2.04396
       O    13.80009    4.45916    1.33608
      H1    14.56604    4.79211    1.79525
       H    13.77499    3.13010    8.85334
       O    14.38608    3.82771    8.50408
      H1    13.94119    4.66255    8.65417
       H    12.70738    8.63135    2.68707
       O    12.80965    7.70330    2.57201
      H1    13.30764    7.61072    1.76640
       H     7.49327   10.31920    3.42533
       O     8.23870   10.62550    2.83969
      H1     7.91250   11.27871    2.25016
       H     9.18438    8.97100   13.98197
       O     9.73107    9.15814   13.19250
      H1     9.59101    8.38835   12.62852
       H    14.48445    4.47938    5.70827
       O    14.64730    3.69482    5.14084
      H1    13.76312    3.69025    4.67002
       H    12.25329   11.64527    9.05334
       O    11.34089   11.29801    8.99040
      H1    10.87973   11.87994    9.68880
       H     5.92640    5.27207    3.88853
       O     5.64459    4.62396    4.55676
      H1     5.73723    4.99335    5.47074
       H    12.50957    4.73958    4.14229
       O    12.41429    3.86476    3.79586
      H1    11.59931    3.48918    4.21030
       H     9.22551    8.19181    4.82046
       O     8.95668    7.24854    4.68145
      H1     9.31083    7.00162    3.86715
       H    15.41212   10.25858    9.35069
       O    15.45758    9.91851   10.23914
      H1    15.50105    8.98110   10.10135
       H    12.53115    7.93721   14.68366
       O    11.97303    7.77374   13.90257
      H1    11.28554    8.47524   13.94588
       H    13.77199   10.31468   11.05367
       O    13.03774   10.74627   11.51638
      H1    12.28035   10.49604   10.91211
       H    11.52505    7.19581    7.28126
       O    11.58971    8.00397    6.76660
      H1    10.76495    8.10017    6.30779
       H    17.09132    9.37968    4.42795
       O    16.52637    9.38726    5.21075
      H1    16.25487    8.50035    5.38494
       H    10.37326    4.81157    1.39166
       O    10.18036    4.05949    0.78907
      H1    10.86054    4.20233    0.16176
       H     7.28618    0.34551    6.38017
       O     7.39524    1.27846    6.57581
      H1     8.20844    1.39845    7.08062
       H    15.59254    6.76717    6.51618
       O    15.78570    6.84452    5.53704
      H1    14.90924    6.79794    5.14831
       H     7.31083    6.91955    3.71091
       O     6.56924    6.65803    3.12442
      H1     6.91195    6.38978    2.30156
       H     8.35191    6.78573    6.72655
       O     8.43732    7.08777    7.67120
      H1     8.01480    7.93962    7.71121
       H     9.88502   10.64614    5.39740
       O    10.09562    9.92294    4.75807
      H1     9.66426   10.20837    3.90290
       H    10.08843   14.45350    5.70552
       O    10.52330   13.58827    5.42667
      H1    11.42844   13.61577    5.79483
       H     6.55387    6.21424    7.55273
       O     5.77374    5.61277    7.46166
      H1     5.06358    6.24004    7.63453
       H    12.98003    7.04292    4.29342
       O    13.13193    6.42729    5.06911
      H1    12.54253    6.85569    5.72293
       H    14.17170   13.08452    5.97537
       O    13.25180   13.01163    5.79162
      H1    13.11061   12.10162    5.57232
       H    14.55925   10.65998   14.20158
       O    14.23296    9.79061   13.89923
      H1    13.58535   10.03065   13.20892
       H     9.72858    0.24526    8.36683
       O     9.25715    0.96118    8.88479
      H1     8.67963    0.47530    9.47547
       H    11.63265    7.66283   11.39666
       O    10.96639    7.00382   11.10937
      H1    10.80247    6.51847   11.92111
       H     5.90238   11.26221   10.75249
       O     6.60302   10.58994   10.82271
      H1     7.30824   10.89656   11.38654
       H    15.04767   12.09342    8.49853
       O    14.42504   11.42133    8.35470
      H1    14.48529   11.12183    7.46038
       H    15.35795    3.26514   10.75112
       O    15.58286    2.80942   11.56626
      H1    15.62214    1.92193   11.28110
       H     5.86142   11.29354    4.02178
       O     6.14002   10.41532    4.37876
      H1     5.45191    9.71731    4.17673
       H     8.55147   12.05673   13.13208
       O     8.49312   11.49130   12.41081
      H1     9.06769   10.77684   12.69740
       H    13.51974    9.33384    6.56796
       O    13.99096    9.94277    6.00445
      H1    14.85269    9.59326    5.80330
       H     5.73042   10.68428    6.11498
       O     5.40786   10.80120    7.03100
      H1     6.07507   10.29969    7.58421
       H    11.67440    6.40803    9.50473
       O    12.07148    6.04734    8.70090
      H1    11.59862    5.20143    8.63147
       H    10.24529   11.57085    7.71475
       O     9.62133   11.56890    6.93313
      H1     9.90200   12.38064    6.41893
       H     8.39971   10.26817    7.89089
       O     7.70403    9.66282    8.22367
      H1     7.52888    9.88083    9.13733
       H    13.08624    6.75101   12.99029
       O    13.56026    6.09807   12.50651
      H1    13.56773    5.34174   13.09198
       H    10.79384    3.26486    7.29844
       O    10.81350    3.58818    8.18541
      H1    10.13741    3.04363    8.63952
       H    15.63202    1.19314    6.13847
       O    14.96688    1.07471    5.41338
      H1    14.82152    2.00525    5.33142
       H     9.91977    7.09181    1.50003
       O    10.28055    6.48376    2.17456
      H1    11.13999    6.93615    2.48762
       H    10.17881   13.98247   10.59061
       O    10.34245   13.01824   10.87429
      H1     9.49586   12.67710   11.18221
       H    18.40520    9.90062    9.43584
       O    17.95814   10.73954    9.81366
      H1    17.04236   10.52998   10.06727
       H    11.05878   -0.20278    4.77949
       O    11.54382    0.68139    4.67230
      H1    11.31446    0.91193    3.75048
       H    10.58248    3.88395   12.25607
       O    10.83643    4.47151   13.01783
      H1    11.77156    4.62425   12.88955
       H    12.18900    2.61233    8.75654
       O    12.74297    1.90767    9.04349
      H1    12.40375    1.39175    9.79715
       H    13.89384    6.69990    8.90347
       O    14.80160    6.95021    8.63271
      H1    15.32612    6.42473    9.26458
       H     9.04982    3.63446   10.60132
       O     9.46736    2.85824   11.11885
      H1     9.73601    2.11901   10.52951
       H    13.01593   10.15999    4.30683
       O    12.39042   10.37676    3.55733
      H1    11.55095   10.24158    4.02529
       H    10.83421    2.15668    5.31419
       O    10.53762    3.08485    5.51952
      H1     9.68967    3.14153    5.07128
       H     8.67428    5.40733    9.26402
       O     8.31542    5.00492   10.05134
      H1     8.37982    5.59035   10.78945

