174
frame 11 | Written by MDAnalysis XYZWriter (release 2.4.3)
       H    -6.70236    9.40777  -18.85425
       O    -7.65467    9.50748  -18.98861
      H1    -7.78332   10.43233  -18.81081
       H     2.31224   14.65195  -15.53919
       O     3.19801   14.47738  -15.42228
      H1     3.52763   14.28585  -16.29718
       H    -5.33401    5.43726  -18.09579
       O    -5.65742    6.09293  -17.46631
      H1    -5.33997    5.89442  -16.61852
       H    -5.22762   14.10963  -10.58786
       O    -4.70455   13.33963  -10.65765
      H1    -4.60974   13.07677  -11.54981
       H    -5.64020   16.46771  -16.89515
       O    -5.44158   16.00847  -16.11322
      H1    -4.48779   15.95683  -15.99646
       H     4.27192    6.68483  -11.71766
       O     4.20622    5.75143  -11.63535
      H1     4.43694    5.49697  -10.69776
       H    -9.14062    7.40261  -16.57090
       O    -9.01246    8.35163  -16.62018
      H1    -8.57826    8.51684  -17.46856
       H     0.13901   15.28663  -14.36463
       O     0.56510   15.04269  -15.18583
      H1     0.18373   14.17519  -15.33614
       H     0.00265   12.45817  -12.25526
       O    -0.74490   12.01328  -12.70710
      H1    -1.28948   11.56764  -12.07373
       H     2.15288   14.00344  -12.01942
       O     2.01600   13.10589  -12.36433
      H1     1.76854   13.34488  -13.28777
       H     0.33171   15.74567  -18.45041
       O     0.51961   16.37271  -17.72902
      H1     0.54696   15.75409  -16.99487
       H    -3.80521   15.86929  -18.38420
       O    -3.45705   15.01006  -18.80713
      H1    -4.27378   14.56527  -19.22330
       H    -0.29430    7.08255  -13.91238
       O    -0.61114    7.78785  -13.33201
      H1    -0.47119    7.48082  -12.40026
       H    -3.18529    7.93017  -12.69864
       O    -3.71057    7.26012  -12.27276
      H1    -4.43002    6.97101  -12.85396
       H    -6.25775   14.10505  -16.31726
       O    -6.57759   13.29158  -16.70424
      H1    -6.07864   12.57965  -16.23774
       H    -5.54842    7.82264  -18.10616
       O    -5.15149    8.47124  -18.63943
      H1    -4.39899    8.88031  -18.22382
       H    -2.96427   13.42507  -14.41818
       O    -2.08353   13.38443  -14.85838
      H1    -1.42687   12.85387  -14.32077
       H    -6.60177    6.78973  -13.85974
       O    -6.38703    6.03915  -13.24997
      H1    -5.76868    5.58660  -13.86175
       H    -1.95790    5.57425  -15.63166
       O    -2.52165    6.38239  -15.78221
      H1    -2.55177    6.48493  -16.79052
       H     0.36114    9.09670  -12.93300
       O     1.07723    9.73106  -12.63077
      H1     0.66271   10.62634  -12.56748
       H     0.78684    2.86725  -13.12992
       O     0.31603    3.66580  -13.06614
      H1    -0.56642    3.45658  -13.37047
       H    -1.03261    9.39905  -16.68997
       O    -0.28490    9.76771  -17.26543
      H1    -0.68136   10.08076  -18.00857
       H    -0.18031    5.15338  -17.20272
       O     0.64341    5.33848  -17.72006
      H1     0.85857    6.26646  -17.34270
       H     6.31130    8.85648  -16.39894
       O     6.51190    8.25895  -15.64360
      H1     6.21177    8.74449  -14.84411
       H     2.01227    9.32121  -18.91871
       O     1.57111    9.07172  -19.70684
      H1     2.09113    9.50608  -20.43081
       H     4.89975   13.27841  -11.19149
       O     4.46509   12.43671  -10.93624
      H1     3.73439   12.41566  -11.53277
       H     3.01665    8.78242  -11.04973
       O     3.80903    8.67460  -11.50484
      H1     3.55235    8.87285  -12.40325
       H    -4.65810   12.09076  -13.87699
       O    -4.44531   12.92308  -13.46323
      H1    -5.28863   13.34949  -13.53453
       H     4.48693    5.21739  -14.33746
       O     5.33578    4.70321  -14.42445
      H1     5.97508    5.15513  -13.84469
       H    -1.64428    9.41521  -10.98330
       O    -2.20718   10.20806  -11.19798
      H1    -2.48300   10.55494  -10.31226
       H     3.34424    6.21677  -15.41218
       O     2.82280    5.93786  -14.60556
      H1     2.37236    5.09061  -14.86684
       H    -0.00541   13.32150  -19.85116
       O     0.03817   13.72975  -18.89762
      H1    -0.84791   13.57121  -18.53647
       H     2.12761    5.30353  -11.49618
       O     1.31923    5.31924  -10.98772
      H1     0.63289    4.84988  -11.46093
       H     0.68337    8.33560  -16.47946
       O     1.14141    7.61571  -16.03598
      H1     1.89969    7.82910  -15.45225
       H     3.17745    9.75233  -16.64376
       O     3.32964   10.20361  -17.45223
      H1     4.24512    9.90833  -17.63707
       H    -0.65520    6.94902  -10.37378
       O    -0.58782    7.95206  -10.30013
      H1     0.31588    8.17248  -10.60783
       H     4.80902   13.31364  -17.39181
       O     5.56328   13.49786  -16.89475
      H1     5.58289   12.82210  -16.19075
       H    -8.65198   12.25970  -19.06654
       O    -7.68250   12.34041  -18.84964
      H1    -7.39331   12.82055  -18.02576
       H    -2.04949    4.52731  -10.71465
       O    -1.77694    5.28574  -10.19045
      H1    -2.54883    5.69710   -9.93654
       H    -1.80482    3.19703  -16.16073
       O    -1.35334    4.02305  -15.92569
      H1    -0.46924    3.71211  -15.69842
       H    -3.88940    5.42134  -15.46287
       O    -4.74880    4.96004  -15.23042
      H1    -4.80028    4.07584  -15.58686
       H    -2.49441   13.04940  -16.69263
       O    -2.41290   12.85763  -17.68087
      H1    -2.85881   13.64790  -18.08939
       H    -7.25245    5.47283  -16.78558
       O    -8.04010    5.32555  -16.24910
      H1    -7.88700    4.41411  -15.85902
       H    -7.04790    8.98726  -14.02199
       O    -6.81503    8.62686  -14.86915
      H1    -7.68411    8.46337  -15.31523
       H    -4.21229    7.59987  -10.57535
       O    -4.44230    7.74214   -9.68238
      H1    -3.93122    8.53283   -9.29586
       H     3.90022    4.41097  -17.75998
       O     3.09481    3.93074  -18.00417
      H1     2.34464    4.58808  -17.88587
       H    -2.07112    6.38792  -19.47775
       O    -1.91762    6.56924  -18.54494
      H1    -0.97819    6.49852  -18.52032
       H     1.70494   12.14335  -16.26427
       O     1.10305   12.18791  -15.52001
      H1     0.77299   11.31460  -15.46904
       H     3.55350   12.16698  -14.85544
       O     4.36185   11.64621  -14.55021
      H1     4.53903   11.95218  -13.67258
       H    -4.26837   10.40888  -15.53707
       O    -5.15832   10.82572  -15.35891
      H1    -5.76308   10.10815  -15.15938
       H     6.56357    8.71563  -18.32101
       O     5.84195    9.32602  -18.06791
      H1     6.01289   10.12207  -18.63049
       H    -0.98581   14.36253  -12.91358
       O    -0.61535   15.23564  -12.74757
      H1    -0.64462   15.27269  -11.79297
       H     2.73788    2.31201  -15.35304
       O     1.80672    2.19280  -15.61049
      H1     1.78434    2.23969  -16.55862
       H    -2.40647    8.50471  -15.45185
       O    -2.62690    9.47815  -15.40742
      H1    -2.58399    9.66747  -14.44954
       H     1.78054   13.20461  -18.37480
       O     2.62391   13.01940  -17.92731
      H1     2.79914   12.08391  -17.89832
       H     3.34732   10.06586  -14.63212
       O     2.81806    9.28225  -14.57126
      H1     2.15756    9.39222  -13.84380
       H     4.13920    7.08471  -17.96488
       O     3.98817    6.94771  -17.01211
      H1     4.89801    6.89286  -16.79743
       H    -3.59679   10.48337  -19.21489
       O    -3.09763   10.17112  -18.44101
      H1    -2.87852   10.95526  -17.86793

