174
frame 1 | Written by MDAnalysis XYZWriter (release 2.4.3)
       H    18.91610  -11.26497   13.18935
       O    19.38372  -12.00801   12.73873
      H1    19.29029  -12.69862   13.43297
       H     8.94521  -11.23697   10.89047
       O     9.52818  -11.94522   11.15608
      H1     8.97168  -12.64503   11.55728
       H    17.64966  -11.14441   15.14890
       O    17.86804  -11.80876   15.80493
      H1    17.01335  -12.18593   16.12556
       H    11.50897  -18.65333   12.02100
       O    11.98145  -19.22322   11.41982
      H1    11.73411  -18.84189   10.59369
       H     6.82425  -18.61773   12.30694
       O     7.22875  -19.02448   11.48962
      H1     7.31633  -19.97961   11.58845
       H     6.85881  -18.53791   17.97091
       O     7.62539  -18.28365   17.42410
      H1     7.38001  -17.52420   16.82415
       H     8.87380  -14.06684   14.27241
       O     9.58908  -14.66600   14.54699
      H1     9.09756  -15.34853   15.00669
       H    16.82571  -17.73494   19.87603
       O    15.91389  -17.94627   19.68996
      H1    15.64750  -17.40603   18.91504
       H    19.16708  -14.32755   16.93088
       O    18.93681  -15.25362   16.70913
      H1    18.84586  -15.83687   17.47551
       H    13.44503  -17.46053   15.03475
       O    13.31428  -17.86911   15.89214
      H1    12.48466  -17.53808   16.33072
       H    12.69391  -14.38005   15.54099
       O    11.84286  -14.42205   15.96087
      H1    11.06056  -14.45903   15.32347
       H    18.50934  -18.20007   17.28216
       O    18.81532  -17.73564   18.09812
      H1    19.11844  -18.47930   18.61054
       H    17.91582  -11.54584    8.32591
       O    17.27243  -11.27288    9.04087
      H1    17.46753  -12.02130    9.65959
       H    13.19949  -11.52423   15.74244
       O    12.76562  -10.68558   15.56038
      H1    12.25399  -10.74144   14.72363
       H    15.81138  -16.93008   12.71696
       O    16.42948  -17.11086   11.97622
      H1    17.34740  -16.87252   12.23495
       H    18.19344  -13.25364   11.50429
       O    18.26127  -13.29934   10.55585
      H1    19.06650  -12.85572   10.46712
       H    10.15425  -15.85905   13.15652
       O    10.41151  -16.76828   12.94113
      H1     9.86220  -17.30888   13.46753
       H    17.28986  -17.39702   15.10014
       O    17.90182  -18.16102   15.27833
      H1    17.38292  -18.98731   15.34102
       H    14.88081  -12.80695   17.07532
       O    15.18219  -12.19920   16.39163
      H1    15.21708  -11.36109   16.77874
       H    13.44533  -13.99353    9.51613
       O    13.39631  -13.13654    9.12487
      H1    12.47254  -12.88562    9.05328
       H    10.26784   -8.85195   16.98622
       O     9.77761   -8.35556   16.27500
      H1     9.17048   -7.74932   16.80982
       H    12.15346   -7.14433   14.27048
       O    11.30456   -6.69693   14.24910
      H1    10.59110   -7.34149   14.59125
       H    12.13239  -10.07757   17.15879
       O    11.78774   -9.69180   17.98261
      H1    11.67453  -10.48362   18.50392
       H    13.20745   -8.70464   19.13302
       O    13.95353   -8.42141   19.65605
      H1    14.14519   -7.50827   19.52895
       H    13.69338   -9.09008    9.86200
       O    13.79457   -9.71537    9.14848
      H1    13.44174  -10.50898    9.57549
       H    10.84647  -12.67301   19.29769
       O    10.77133  -12.38188   18.33910
      H1    10.89540  -13.18659   17.81210
       H    14.97781   -8.88571   16.38547
       O    14.66696   -8.69997   15.51361
      H1    13.85994   -9.28646   15.45052
       H     7.96458  -11.89989   18.56078
       O     7.66291  -11.84341   17.59690
      H1     8.50783  -11.78808   17.16719
       H    19.36603  -15.38860   13.55469
       O    19.45847  -14.60786   14.10066
      H1    19.20413  -14.91860   14.98047
       H    10.85850  -11.61471   12.46443
       O    11.39719  -11.45382   13.21494
      H1    12.22293  -11.92474   13.05816
       H     7.02125  -16.73711   14.91720
       O     7.26123  -16.15942   15.67188
      H1     6.52791  -15.62354   15.97854
       H     9.49125   -8.84402   12.83693
       O     9.32528   -7.99422   12.47065
      H1    10.12606   -7.49269   12.37698
       H    15.04673  -14.75620   14.13647
       O    14.19967  -14.35423   13.96423
      H1    14.43118  -13.55854   13.35370
       H    16.38174  -10.23155   18.27463
       O    15.60552   -9.83992   17.88775
      H1    15.20426   -9.24421   18.56243
       H     7.51122  -12.27816   13.15882
       O     7.77957  -13.16042   12.80798
      H1     7.04957  -13.55502   12.23513
       H    11.06614  -17.03993   17.92791
       O    11.14691  -16.84185   17.02034
      H1    11.33436  -15.89339   16.83210
       H    14.34469  -16.54613   11.01597
       O    14.14968  -15.96328   10.18925
      H1    15.06260  -15.83975    9.83022
       H     6.66743   -9.20104   18.83467
       O     6.68810   -8.96965   17.89601
      H1     7.17416   -9.73337   17.60020
       H    15.43935   -7.75468   14.17442
       O    15.44420   -7.29074   13.32886
      H1    15.50319   -6.38324   13.59641
       H    15.07989  -13.87819   18.77063
       O    14.29481  -13.99896   18.28322
      H1    13.58912  -14.28189   18.91501
       H     5.17906  -17.17244   18.77769
       O     4.86555  -18.05975   18.40028
      H1     4.64156  -18.63144   19.13319
       H     8.58946  -19.09488   14.99538
       O     9.36964  -18.53854   14.87794
      H1     9.50587  -18.18958   15.78493
       H    14.67106  -11.25368   12.24316
       O    14.30177  -12.12053   12.17037
      H1    14.58528  -12.37095   11.30392
       H    14.01010  -17.24818    8.58566
       O    13.78980  -17.86558    7.82298
      H1    13.72229  -18.74502    8.27306
       H    12.89321  -17.38900   12.56791
       O    13.69312  -17.05324   12.89341
      H1    13.66110  -16.12218   12.99661
       H    17.49017  -14.82695   10.01403
       O    16.88119  -15.42853    9.66230
      H1    16.91409  -16.12817   10.32377
       H     9.62035  -18.56874   20.08488
       O     8.66037  -18.64260   19.88260
      H1     8.58949  -18.50550   18.93432
       H    17.33614  -15.29365   15.40857
       O    16.56483  -15.74238   15.00714
      H1    16.00274  -15.83661   15.79154
       H    17.90676   -8.97198   14.25366
       O    17.76470   -9.86261   13.81274
      H1    17.01230   -9.74610   13.27349
       H     9.56160   -9.87438   15.36046
       O     9.23275  -10.44610   14.67649
      H1     9.98256  -10.83930   14.24783
       H     7.05891  -13.41854   17.83892
       O     6.57388  -14.25505   17.98310
      H1     5.70234  -14.06619   17.51562
       H     7.39252  -10.39944   13.89718
       O     6.75385  -10.41180   13.18576
      H1     5.88333  -10.64157   13.58076
       H    19.79263  -16.46893   11.75410
       O    19.11286  -16.63107   12.40315
      H1    19.37651  -17.48125   12.81733
       H     6.01069  -18.27853   14.19502
       O     6.37750  -17.53847   13.63301
      H1     5.66954  -16.87442   13.44801
       H    19.10254   -6.92933   15.32018
       O    18.33879   -7.55813   15.49550
      H1    18.48527   -7.91233   16.38178
       H    15.92965  -10.03723   10.62834
       O    15.98119   -9.75888   11.50980
      H1    15.61633   -8.86392   11.52625
       H    19.07103   -7.26125   18.26591
       O    19.06849   -6.32919   18.47532
      H1    18.34108   -6.37170   19.16208
       H    14.50402  -16.93751   16.85436
       O    15.12376  -16.45564   17.36609
      H1    14.71895  -15.65062   17.67186

