174
frame 12 | Written by MDAnalysis XYZWriter (release 2.4.3)
       H    17.59303   -0.71313   12.48307
       O    16.94210   -0.32556   13.14229
      H1    17.36716   -0.17648   14.02436
       H    12.09799    5.89007   16.41029
       O    12.11756    5.02548   16.86631
      H1    11.66011    4.41145   16.32706
       H    10.82987    6.24260   19.89746
       O    10.57153    5.50026   19.32586
      H1    11.10923    5.52514   18.48282
       H    16.17267    6.77522   10.63663
       O    15.23231    6.83393   10.95367
      H1    15.08075    6.25926   11.71047
       H    18.98869    4.69816   11.32514
       O    19.93852    4.62731   11.51069
      H1    20.03067    4.12102   12.32231
       H    10.27299    9.02770   17.54415
       O     9.69991    8.36637   17.91326
      H1     9.64273    8.61874   18.86355
       H     9.11881    4.69029   19.07310
       O     8.24415    4.33882   19.07616
      H1     8.29072    3.58898   19.71021
       H     8.22665    4.27452   17.47053
       O     8.28581    4.05162   16.50825
      H1     7.36578    3.71747   16.24759
       H    15.06194   -1.34068   19.21295
       O    15.17886   -0.61562   18.59335
      H1    15.18120   -0.87025   17.67929
       H    18.63888    0.79336   16.05601
       O    18.27744    0.09252   15.53366
      H1    18.06249   -0.72428   16.03889
       H    16.23012   11.51694   12.87385
       O    16.66142   11.20215   13.63440
      H1    17.55804   11.58306   13.68621
       H    11.11538    9.69439   11.37011
       O    11.36326   10.39408   12.02611
      H1    11.63441   11.09087   11.42851
       H    10.19969    3.68838   14.90527
       O    11.00324    3.23678   15.17559
      H1    11.64697    3.44941   14.47145
       H    18.46743    6.74414   10.97081
       O    17.87239    6.64149   10.20272
      H1    18.42731    6.98776    9.39799
       H    13.06444    1.70369   12.75031
       O    12.43944    2.40976   12.94090
      H1    11.57446    2.02372   12.74073
       H    14.08820   12.60374   12.18970
       O    14.88870   12.38853   11.69991
      H1    14.64766   12.43397   10.68000
       H    17.15105    3.19021   14.35401
       O    17.07257    3.60660   15.23975
      H1    16.13086    3.70509   15.48073
       H     9.32677    7.85995   15.78848
       O     9.56123    7.83898   14.86967
      H1     9.21352    7.06268   14.43831
       H    14.12433    8.97224   13.50428
       O    13.26778    9.36535   13.78668
      H1    12.76715    9.50512   13.01878
       H    15.23900    0.06997   13.08565
       O    14.30550    0.33232   13.15589
      H1    13.84549   -0.24203   12.54650
       H    13.39526   -1.91730   17.45295
       O    13.74830   -2.59676   16.84911
      H1    14.27020   -3.17480   17.41423
       H    11.62993   13.78248   16.59104
       O    12.12350   13.37382   17.27336
      H1    12.83796   12.94594   16.75365
       H    14.28157    5.21925   17.79320
       O    15.14017    5.54802   17.46410
      H1    15.11887    5.94284   16.56768
       H    19.88140   -3.90039   18.49574
       O    19.68339   -2.95528   18.40542
      H1    19.32397   -2.68144   19.29432
       H    17.50110    1.98494   10.23209
       O    16.66198    2.51830   10.22865
      H1    16.06163    1.78288   10.40668
       H    18.48601    0.19127    9.59245
       O    18.90621    0.95072    9.99364
      H1    19.39716    0.67640   10.75287
       H    17.24122    6.77147   19.67668
       O    17.72514    6.30750   18.96481
      H1    17.04079    6.12536   18.32975
       H    19.73231   13.56803   14.01797
       O    19.04189   12.98147   14.35851
      H1    19.44051   12.57157   15.10793
       H    14.38293   11.76586   16.06596
       O    13.53344   11.36925   15.92414
      H1    13.64467   10.94750   15.08186
       H    17.83229   -3.55942   16.22986
       O    17.08300   -2.97756   16.38380
      H1    16.63951   -2.87290   15.52238
       H    11.01603    7.51961   11.28469
       O    10.64220    8.16224   10.64538
      H1     9.65164    8.12938   10.68278
       H    15.82844    2.14729   19.33861
       O    15.73059    3.08509   19.32915
      H1    15.74489    3.39763   18.43475
       H     9.94969   12.40276   19.29844
       O    10.41108   11.73104   18.83775
      H1    10.95620   12.10390   18.11851
       H    10.46477   -0.13056   17.37529
       O    10.91400   -0.91517   17.08314
      H1    10.49268   -1.06147   16.20987
       H    17.17369    2.58483   11.84823
       O    17.46695    2.44927   12.76838
      H1    17.25676    1.50659   12.97317
       H    12.92067    1.18740   18.16032
       O    12.82551    0.69717   19.02587
      H1    13.60235    0.09903   18.99885
       H    17.47457   13.28431   20.11260
       O    17.28564   13.04660   19.20013
      H1    17.23269   13.73956   18.53591
       H    14.20333    4.83587   13.89379
       O    14.15194    5.20152   12.95488
      H1    13.50382    4.57830   12.52772
       H    13.08276    4.79808    9.85083
       O    12.66763    4.18440   10.43141
      H1    11.84479    3.92283   10.02202
       H    17.91510   11.51693   10.95279
       O    17.72314   12.48645   10.95912
      H1    16.78783   12.62249   10.94794
       H    10.06998    5.55387   13.19471
       O     9.47400    5.15098   13.82780
      H1     8.68266    4.79932   13.43438
       H     9.83166    1.78054   18.37632
       O     9.52245    1.52058   17.51098
      H1     8.98445    2.21153   17.19523
       H    13.93428    2.89464   15.01212
       O    14.09339    3.80038   15.23924
      H1    13.52375    4.06711   15.95285
       H    15.11540   15.50014   14.69976
       O    15.42908   15.32505   15.61932
      H1    16.30966   15.71221   15.68915
       H    12.47420    0.18626   16.21879
       O    13.29881    0.50587   15.94998
      H1    13.38467    0.14053   15.02305
       H    17.74444    7.88159   15.95271
       O    18.30304    8.60359   16.13410
      H1    17.93293    9.15005   16.81807
       H    14.89867   -2.52909   14.06023
       O    15.87185   -2.60972   13.99907
      H1    16.16230   -1.68455   13.71957
       H    11.19809    7.18920   14.94599
       O    12.13568    6.93757   14.84031
      H1    12.56730    7.80608   14.90782
       H    11.85778    5.32786   11.53782
       O    11.50607    6.06775   12.13954
      H1    12.11626    6.11332   12.88231
       H    16.83722    5.50424   14.91181
       O    16.67924    6.41930   15.10692
      H1    16.28802    6.75323   14.28856
       H    16.32437   12.46310   15.40695
       O    15.99650   12.60101   16.28657
      H1    15.97519   13.57091   16.21723
       H     9.47164    0.68099   15.01017
       O    10.26086    0.75292   14.48935
      H1    10.66894    1.59180   14.83107
       H    13.23077    6.23593    8.43942
       O    14.14416    5.93208    8.68703
      H1    14.35462    6.42980    9.49203
       H    18.73178    9.39608    9.95035
       O    18.76956    9.84018   10.79218
      H1    19.70715    9.83072   11.02508
       H    15.73906    7.88382   12.18781
       O    15.90879    8.33419   12.98320
      H1    16.22923    9.18444   12.74088
       H    17.47802   11.32534   18.29264
       O    17.69964   10.37192   18.15152
      H1    16.87231    9.94588   17.85750
       H    11.69334   10.41471   16.10122
       O    10.75017   10.10369   16.09528
      H1    10.68137    9.53637   15.32015
       H    19.85287    2.60186   16.76677
       O    19.67142    3.10741   15.94190
      H1    18.74098    3.29768   15.80974

