174
frame 2 | Written by MDAnalysis XYZWriter (release 2.4.3)
       H    -3.06259    3.13900   -2.93885
       O    -3.70487    2.47524   -2.59544
      H1    -4.18993    2.81040   -1.80887
       H    -1.83378    5.34218    0.62231
       O    -1.64328    4.57221    0.07844
      H1    -1.51563    3.79513    0.61037
       H     0.98800    4.24092    3.22869
       O     0.96290    5.14567    3.49591
      H1     1.05773    5.74011    2.71278
       H    -0.73749   -2.05568   -2.93406
       O    -1.45538   -1.65801   -3.43694
      H1    -1.09561   -1.65975   -4.37575
       H    -3.81669    0.92050   -5.15154
       O    -4.73219    1.03504   -4.91676
      H1    -4.78019    1.74112   -4.29628
       H     0.24051    6.75365    5.81787
       O    -0.07151    6.24108    6.61197
      H1     0.69500    6.25898    7.20413
       H     4.27298    5.50188    1.22452
       O     4.45230    4.61800    1.06714
      H1     3.65033    4.10643    1.06174
       H    -4.66265   -1.75136   -2.54721
       O    -4.01193   -2.20585   -1.97809
      H1    -3.22402   -2.18691   -2.52520
       H    -1.42677   -4.73403    1.45254
       O    -1.30183   -5.20238    0.55232
      H1    -1.07161   -4.45075   -0.08755
       H     1.80414    2.78283    1.34533
       O     2.47785    2.91921    0.67792
      H1     2.98448    2.08061    0.64835
       H    -6.90859    5.47738    1.73659
       O    -6.77037    5.30730    0.77048
      H1    -7.61443    4.92455    0.43632
       H     3.67638    5.37379    5.20022
       O     3.04086    6.02431    4.82893
      H1     2.31429    5.52743    4.39723
       H     3.23120   -1.90159    3.93629
       O     2.59232   -1.24283    4.23676
      H1     3.11000   -0.44202    4.31642
       H    -4.65153    5.99243   -2.88798
       O    -5.03911    6.16507   -2.01729
      H1    -4.73832    5.47480   -1.46395
       H    -2.02801   -3.62743    4.20439
       O    -1.90533   -2.82913    4.76469
      H1    -1.26880   -2.98537    5.48299
       H    -3.61378    6.99946    1.04822
       O    -3.53505    6.17082    1.53867
      H1    -2.94015    6.34782    2.30127
       H     2.09809   -1.35822   -0.75143
       O     2.26203   -2.23067   -1.12046
      H1     2.70294   -2.16967   -1.90826
       H     0.57381   -2.76485   -1.24263
       O    -0.30995   -3.19094   -1.29078
      H1    -0.37415   -3.75230   -2.07404
       H    -3.80091    0.58990    3.23274
       O    -3.81397    1.43368    2.71011
      H1    -4.45527    1.37126    1.98057
       H     0.63414    7.51306    1.63701
       O     1.48692    7.19066    1.84926
      H1     1.95058    7.93073    2.30104
       H     2.53049   -4.05178    1.57483
       O     1.83494   -4.13880    2.23079
      H1     1.05570   -3.68198    1.85920
       H     5.35168    3.20165    0.78749
       O     5.77366    2.56018    0.21609
      H1     5.38253    2.81744   -0.65841
       H    -0.39056    6.15005   -2.22479
       O    -0.35802    5.19379   -2.06773
      H1    -0.71494    4.96122   -1.22698
       H     5.63637    0.83135   -2.37137
       O     4.82957    0.33382   -2.58038
      H1     4.34849    0.42542   -1.73242
       H    -5.09223    2.01972    0.06625
       O    -5.58583    1.62766    0.75837
      H1    -5.46437    0.68235    0.46721
       H     1.37515    4.40446   -2.01492
       O     2.06662    3.76216   -1.90430
      H1     1.98591    3.59327   -0.95698
       H     2.67945    7.28120    0.08218
       O     3.17047    7.96264   -0.43961
      H1     3.28454    7.53093   -1.29292
       H    -4.57911    0.57739    7.02171
       O    -4.67122   -0.36811    7.19317
      H1    -5.58416   -0.46363    6.94089
       H    -1.34811    1.02142   -4.33330
       O    -0.76228    1.56145   -4.83254
      H1    -0.10345    1.71384   -4.14710
       H    -1.34214    0.15463   -1.01659
       O    -0.43846    0.14688   -0.74261
      H1     0.07970    0.55391   -1.45305
       H    -8.19728    2.56110    2.69121
       O    -7.87227    1.82918    2.12865
      H1    -7.14447    2.13207    1.52792
       H     0.51640   -0.35532    4.09984
       O    -0.17907    0.06360    4.63178
      H1    -1.06490   -0.11079    4.22935
       H    -0.86723    5.67062    3.85066
       O    -1.79252    5.96232    3.90954
      H1    -2.25123    5.18855    4.29871
       H    -4.68114   -1.02163   -0.22060
       O    -5.42891   -1.15751    0.42775
      H1    -6.30729   -1.11288    0.00597
       H    -5.31135    4.27830    7.24439
       O    -4.54560    4.27323    7.81209
      H1    -3.75052    4.21098    7.33267
       H    -0.12595   -1.89060    7.34061
       O    -1.03911   -2.14308    7.46924
      H1    -1.53185   -1.36229    7.20458
       H    -1.92557    7.99233    3.96241
       O    -2.06281    8.89818    3.63562
      H1    -2.98212    8.87325    3.22663
       H     1.70116    2.10980   -2.55963
       O     1.14002    1.33590   -2.83266
      H1     1.69347    0.88923   -3.47653
       H    -4.58000    2.82454    6.68064
       O    -5.02640    2.35925    5.93987
      H1    -4.55960    2.77480    5.18661
       H    -1.55220    8.60851    1.19566
       O    -1.16746    7.74068    0.95021
      H1    -0.93871    7.88907    0.02289
       H     2.18512   -1.39066    6.36283
       O     1.59937   -1.71479    7.01844
      H1     1.69598   -1.07920    7.75303
       H    -4.05598   -0.61919    5.45498
       O    -3.50637   -0.73001    4.67408
      H1    -2.88053   -1.45974    4.77311
       H    -1.53529    4.14973    7.92786
       O    -1.61255    3.87741    6.97936
      H1    -1.13510    4.67171    6.58908
       H     3.92261    3.90311   -1.88798
       O     4.87745    3.98011   -2.01654
      H1     5.19116    4.68738   -1.51598
       H    -2.00364   -2.09327    1.75378
       O    -1.15028   -1.64420    1.56689
      H1    -1.31787   -1.33055    0.65454
       H    -0.75460    1.58855    0.66241
       O    -1.11675    2.12885    1.38089
      H1    -1.87665    1.55029    1.69321
       H    -4.97693    4.35876    0.27212
       O    -4.37816    4.00784   -0.41201
      H1    -3.48433    4.09229   -0.03571
       H    -1.13142    1.90377    6.82121
       O    -0.97706    0.96394    6.91232
      H1    -0.63576    0.76205    5.99894
       H    -4.74127    4.37846    3.89825
       O    -3.99813    3.81609    4.09369
      H1    -3.99163    3.05145    3.47727
       H     0.18908    2.22208    2.55724
       O     1.05688    2.50184    2.88792
      H1     1.25296    1.91469    3.67222
       H    -4.19487   -1.54696    3.19992
       O    -4.02097   -2.22730    2.49999
      H1    -4.66065   -1.92968    1.81168
       H     3.12399    1.77814    5.81587
       O     2.84808    1.92901    4.91448
      H1     3.43336    2.63497    4.64288
       H     4.64510    1.15730    0.32029
       O     3.81322    0.74990   -0.02390
      H1     3.37024    0.17595    0.61847
       H    -5.03257    5.72650    2.71412
       O    -5.76841    5.56278    3.31376
      H1    -5.91370    6.44890    3.70099
       H    -1.45391    3.19283   -4.08924
       O    -1.88090    3.99551   -3.84454
      H1    -1.39054    4.48591   -3.15593
       H     2.35784   -0.78897    2.45462
       O     2.08889   -0.81651    1.53860
      H1     1.15282   -0.96179    1.51095
       H     0.26204    8.56798   -2.12343
       O    -0.50421    8.01623   -1.97868
      H1    -1.24660    8.55848   -2.15348
       H    -3.76188   -0.21358   -1.76608
       O    -3.35653    0.25878   -1.04556
      H1    -3.15693    1.13336   -1.38456

