174
frame 11 | Written by MDAnalysis XYZWriter (release 2.4.3)
       H    18.43580  -13.43397   -6.40247
       O    18.38109  -13.44880   -7.39600
      H1    17.98404  -12.63342   -7.75115
       H    19.03330  -15.21064   -7.49783
       O    19.43669  -16.09390   -7.64828
      H1    18.87108  -16.38103   -8.35386
       H    19.34476  -16.75426   -2.30280
       O    18.67807  -16.11927   -2.53055
      H1    18.10414  -16.68949   -3.07670
       H    16.20442  -15.16729    0.34047
       O    16.56470  -14.47807   -0.27180
      H1    16.46355  -14.77725   -1.15668
       H    16.00598  -18.55894  -15.17133
       O    15.40833  -17.78808  -15.20977
      H1    15.14386  -17.54253  -14.30031
       H    19.23688   -9.09198   -7.15435
       O    18.43807   -9.32790   -6.62024
      H1    18.84641   -9.68796   -5.80171
       H    17.85589  -14.17783    0.53064
       O    18.67788  -14.00973    1.00805
      H1    18.48086  -14.07068    1.94647
       H    12.09503  -14.94430   -6.30308
       O    12.02230  -14.97356   -5.32340
      H1    12.79167  -14.48478   -5.04924
       H    13.37317   -7.63513   -8.28345
       O    13.39360   -8.30554   -7.57398
      H1    14.35360   -8.44795   -7.38999
       H    13.17427  -18.31290   -5.87875
       O    12.30325  -18.75312   -5.89620
      H1    11.67546  -18.19267   -6.32425
       H    16.91210  -12.61066   -3.44335
       O    16.71659  -12.19904   -2.60792
      H1    15.77222  -11.92470   -2.56982
       H    18.17045  -18.13708    1.72774
       O    18.41064  -18.67097    2.50198
      H1    17.70972  -19.29838    2.70232
       H    14.98318  -17.07512   -6.46081
       O    14.86293  -17.97307   -6.10042
      H1    15.68241  -18.46584   -6.41955
       H    19.11931  -12.89732  -16.25487
       O    19.89688  -13.22549  -15.83292
      H1    20.08723  -12.67517  -15.04403
       H    14.69750  -18.79346   -0.68602
       O    14.68676  -17.81002   -0.78058
      H1    15.13363  -17.47623    0.05913
       H    12.82973  -13.34781   -0.65943
       O    12.19313  -13.50617   -1.41409
      H1    12.12301  -14.47410   -1.59537
       H    18.74298  -18.89643  -10.55649
       O    19.55484  -19.14857  -10.97295
      H1    19.74612  -20.09248  -10.78512
       H    14.03985  -10.98074   -8.50180
       O    14.95186  -10.78436   -8.11499
      H1    15.45053  -11.54653   -8.51431
       H    19.32404  -17.03066   -6.18230
       O    19.11434  -17.68657   -5.39327
      H1    19.33186  -17.20386   -4.58877
       H    14.68150   -8.33094   -2.52142
       O    15.58626   -8.51663   -2.92521
      H1    16.11157   -8.33175   -2.12761
       H    15.49110  -10.18454   -4.93906
       O    15.89178  -10.90152   -5.41470
      H1    15.54439  -10.78478   -6.33294
       H    11.39156  -18.12546  -10.17588
       O    11.96293  -17.86237  -10.93162
      H1    12.37683  -17.06798  -10.60136
       H    12.17289  -10.50863   -9.87426
       O    12.67297  -11.26279   -9.50255
      H1    12.76221  -11.91322  -10.18636
       H     9.97816  -19.52033   -8.45414
       O    10.70712  -19.01545   -8.83002
      H1    11.55118  -19.44388   -8.59336
       H    10.58899  -17.14856   -8.21976
       O    10.89907  -16.40695   -7.66025
      H1    10.04684  -15.91755   -7.43680
       H    17.97565  -18.87861   -6.27367
       O    17.20651  -19.34387   -6.72277
      H1    17.35840  -20.20659   -6.29623
       H    14.20245  -18.31200  -12.39536
       O    14.24423  -17.38713  -12.73322
      H1    13.35976  -17.08028  -12.85850
       H    20.08759   -8.25189  -14.43401
       O    19.21475   -8.67294  -14.38259
      H1    19.03353   -8.63611  -13.42349
       H    14.48911  -15.49443   -9.79540
       O    13.51990  -15.33335   -9.72272
      H1    13.39813  -14.61718   -9.07283
       H    15.28446  -15.88575   -3.63466
       O    14.95209  -15.08172   -3.19820
      H1    13.98647  -15.21335   -3.05645
       H    16.02841   -9.14624   -8.45658
       O    16.11267   -8.20673   -8.27406
      H1    16.51219   -8.17279   -7.36270
       H    15.60374  -14.60702   -6.15085
       O    16.00289  -15.27687   -6.71765
      H1    16.77417  -14.77384   -7.10157
       H    15.35683   -8.02476   -4.61030
       O    15.61635   -8.00933   -5.52251
      H1    15.74876   -7.11157   -5.73336
       H    13.52888  -14.18729  -11.04702
       O    13.56499  -13.28831  -11.36947
      H1    14.19004  -13.34724  -12.09105
       H    15.04507  -12.46593   -5.16241
       O    14.54286  -13.33513   -5.16273
      H1    14.80867  -13.83469   -4.38255
       H    17.04726  -14.44553  -17.67934
       O    17.56828  -15.24699  -17.74859
      H1    18.12641  -15.26809  -16.94346
       H    11.26295  -16.17934   -3.19137
       O    11.89982  -16.01603   -2.49411
      H1    11.91676  -16.92823   -2.10016
       H    15.14634  -10.38505  -12.04215
       O    14.98552   -9.92311  -11.24823
      H1    15.26540  -10.47800  -10.53449
       H    15.41604  -16.19049  -11.53250
       O    15.90927  -15.81168  -10.76040
      H1    16.27545  -16.53604  -10.24383
       H    18.61884   -8.00769   -1.88819
       O    18.98327   -8.43690   -2.65034
      H1    18.71646   -7.77693   -3.36771
       H    16.73069  -16.71761    1.09091
       O    15.93003  -16.32414    1.35844
      H1    15.89636  -16.35987    2.34741
       H    15.91536   -8.33307  -11.07215
       O    16.23140   -7.44484  -10.82711
      H1    16.25965   -7.53033   -9.83358
       H    18.71485  -12.36648   -4.39908
       O    18.48736  -13.32780   -4.57459
      H1    19.13968  -13.78111   -4.07574
       H    18.72532   -9.53707  -11.09952
       O    18.72460   -8.71538  -11.62086
      H1    17.92388   -8.29567  -11.44236
       H    14.01689  -11.30883  -14.14323
       O    13.08286  -11.15080  -14.23352
      H1    12.92514  -10.35007  -14.74326
       H    17.93115  -10.58652   -7.96512
       O    17.60718  -11.10766   -8.68981
      H1    18.29545  -11.28800   -9.37828
       H    18.11209  -17.02190   -0.72377
       O    17.95630  -17.68678    0.01081
      H1    17.80307  -18.58751   -0.41504
       H    17.60006  -10.76567   -4.69388
       O    18.51772  -10.64916   -4.51568
      H1    18.52110   -9.96825   -3.80134
       H    19.27622  -16.70546  -15.13260
       O    19.37049  -16.06367  -15.88280
      H1    19.40182  -15.22643  -15.43687
       H    19.80036  -18.87667  -14.10930
       O    18.96443  -18.64816  -13.62679
      H1    19.11917  -19.05071  -12.78121
       H    19.11839  -11.58348  -12.39808
       O    18.38927  -11.52435  -11.77057
      H1    17.59867  -11.45344  -12.27478
       H    16.47236  -15.51603  -14.59897
       O    15.98405  -14.79050  -14.15338
      H1    15.26044  -14.72677  -14.80217
       H    15.44655  -17.86769   -4.46574
       O    16.04462  -17.78883   -3.69445
      H1    15.45305  -17.88264   -2.88036
       H    12.60178  -12.00095   -2.51890
       O    12.80080  -11.11224   -2.82384
      H1    12.05162  -10.90993   -3.42830
       H    18.10949  -12.03165   -1.29703
       O    18.55569  -11.68974   -0.51402
      H1    18.66798  -12.50487    0.00441
       H    16.12639  -12.60966  -13.67649
       O    15.82326  -11.70587  -13.50130
      H1    16.12463  -11.19383  -14.29066
       H    17.13214  -18.80718   -8.94000
       O    17.12834  -18.30682   -9.76402
      H1    16.35084  -18.64664  -10.17369
       H    17.46381  -15.96329  -12.03730
       O    18.35750  -16.26764  -12.33566
      H1    18.31189  -17.22979  -12.48102

