174
frame 7 | Written by MDAnalysis XYZWriter (release 2.4.3)
       H    15.80582    8.61553   -7.32438
       O    15.29986    9.34494   -6.95677
      H1    14.63280    8.93898   -6.38794
       H    16.62317   14.76759   -3.13701
       O    16.04475   14.86187   -3.87906
      H1    15.25065   14.42919   -3.60096
       H     7.02165   11.17557   -1.35179
       O     6.23804   10.62017   -1.19843
      H1     5.92712   10.32211   -2.03626
       H    12.12742    4.48720   -8.12903
       O    11.42464    4.51091   -7.53253
      H1    11.66489    5.01535   -6.76597
       H    14.88014   11.91998   -3.87069
       O    14.28327   12.07746   -4.60437
      H1    13.79508   11.25385   -4.78501
       H    13.59507    8.92743    2.55725
       O    13.33721    8.09194    2.08698
      H1    13.66471    8.05156    1.21558
       H     8.81162    9.78786    3.84554
       O     9.56329    9.80746    3.17271
      H1     9.57489   10.72027    2.93846
       H     9.51377   11.12553   -8.03575
       O     9.84063   12.03602   -8.27583
      H1     9.63025   12.56249   -7.49753
       H     7.60207   12.58079   -5.86421
       O     8.49314   12.74579   -5.54528
      H1     8.37559   13.60213   -5.09469
       H    18.04945   10.97912   -2.30680
       O    17.44514   10.71357   -3.01106
      H1    16.66858   10.31674   -2.62709
       H    14.10509    3.37994   -6.32646
       O    14.05015    3.72575   -5.39059
      H1    13.43843    4.46221   -5.28634
       H    17.70909   12.86937    1.78166
       O    17.80952   13.33684    0.93966
      H1    16.97071   13.26487    0.46451
       H    10.91469    8.37657   -3.21424
       O    11.16086    8.01043   -2.36745
      H1    10.39032    7.71584   -1.85941
       H    10.65399    3.92522   -2.85657
       O    10.68193    4.88064   -3.08256
      H1    11.22119    5.29547   -2.35559
       H    10.38706   11.36912   -3.30368
       O     9.41004   11.21032   -3.42776
      H1     9.21012   11.84765   -4.17367
       H    16.89002    6.78100   -5.42546
       O    16.85920    6.61887   -4.43297
      H1    16.70486    5.66317   -4.30770
       H    10.02453    9.75312    0.87640
       O     9.76207    9.84640   -0.06921
      H1     9.54106    8.96196   -0.37758
       H    17.71661   10.34275   -4.83284
       O    17.79287    9.86856   -5.66998
      H1    16.89447    9.81653   -5.90175
       H    11.46662   11.03844   -1.05290
       O    11.78683   10.70661   -1.91131
      H1    11.51289    9.81096   -1.84657
       H     8.09734   15.57341    0.25208
       O     7.77595   15.26931   -0.63252
      H1     7.66094   14.33038   -0.55391
       H    10.25455   10.22286    6.57153
       O    10.35935    9.50947    5.91212
      H1    10.24256    9.95920    5.04250
       H     7.20665    6.87191    0.73277
       O     6.45594    7.39447    0.37527
      H1     6.74317    8.20719   -0.01772
       H    13.28045   11.98875   -7.91063
       O    12.79725   11.19595   -8.18547
      H1    11.86376   11.30711   -7.98586
       H     8.24811    6.96759   -1.44055
       O     9.04345    7.16261   -0.89307
      H1     8.83802    6.58796   -0.14579
       H     5.04392   11.69011   -4.01827
       O     5.03124   10.75875   -3.84941
      H1     4.13581   10.54593   -3.65980
       H    12.46622   15.74976    1.50749
       O    11.84825   15.50579    0.82134
      H1    11.55646   16.31670    0.36403
       H    10.57578   13.46869    4.98129
       O    10.65066   12.56331    4.59470
      H1    11.37641   12.58389    3.97450
       H    12.55482   14.44359   -0.31094
       O    12.96240   13.72601   -0.87663
      H1    12.25254   13.73439   -1.62337
       H    13.63342    6.99938    3.35349
       O    13.81343    6.40137    4.13627
      H1    13.32090    6.86867    4.82327
       H     9.71853    9.16873   -6.53624
       O     9.39902    9.30384   -7.44607
      H1     8.70382    8.68408   -7.68654
       H     6.92608   14.51767   -3.70980
       O     7.78035   14.99274   -4.02043
      H1     7.60362   15.94267   -4.10099
       H    11.85266    5.73050   -4.50371
       O    12.42972    5.83719   -5.25765
      H1    13.10448    6.52813   -5.05845
       H    10.05078   16.20735   -0.99715
       O    10.21752   17.05961   -0.63953
      H1     9.42704   17.63850   -0.51462
       H     8.81689    6.00701   -6.27984
       O     8.91718    5.64513   -7.14937
      H1     9.77096    5.15256   -7.15636
       H    10.79930   15.01951   -3.69950
       O    10.48647   14.60243   -2.83532
      H1     9.48319   14.64037   -2.93247
       H     8.67627   12.28213   -1.97144
       O     8.47344   12.19453   -1.02245
      H1     8.97724   11.42788   -0.84576
       H    14.28043   13.04143   -6.32663
       O    13.99125   13.45581   -7.16962
      H1    14.77085   13.76513   -7.68376
       H    12.85344   10.02408   -6.43262
       O    12.87560    9.81018   -5.49440
      H1    11.97807    9.49406   -5.36428
       H    10.79754   14.75372   -6.22903
       O    11.00981   15.35510   -5.47247
      H1    10.59493   16.21144   -5.47213
       H     5.22288    8.30438   -5.14361
       O     6.08512    8.61501   -4.90523
      H1     5.92194    9.45891   -4.50516
       H    18.16938    9.15325   -2.86251
       O    18.46187    8.19815   -2.86097
      H1    17.96184    7.77509   -3.55453
       H     5.94300    7.01532   -2.12975
       O     6.59208    7.11948   -2.77761
      H1     6.20557    7.77322   -3.40803
       H    10.09596    7.97250    2.56187
       O    10.64909    7.17644    2.71751
      H1    11.11177    7.07177    1.86279
       H    12.04104   12.45102    1.65787
       O    11.68525   12.20950    0.75945
      H1    12.08220   12.89129    0.16439
       H    15.86730    7.76301    0.12249
       O    14.93813    7.61305   -0.13204
      H1    14.94864    6.89178   -0.74543
       H    13.78189    9.81612   -2.01935
       O    14.68886    9.54235   -1.92150
      H1    14.73183    8.87672   -1.22716
       H     7.48390   11.74989    1.96419
       O     6.59201   11.39042    2.08278
      H1     6.53427   10.62954    1.53833
       H    15.42973    7.37561   -4.59028
       O    14.45632    7.65210   -4.73459
      H1    14.23046    8.49223   -4.26568
       H    14.64158   13.13685   -0.45019
       O    15.54504   12.73033   -0.55335
      H1    15.47361   11.82285   -0.84469
       H    10.02128   15.49024    1.35797
       O     9.10912   15.33360    1.69896
      H1     9.06275   14.36432    1.91375
       H    15.00486   10.34255    2.71781
       O    14.13618   10.56692    3.11706
      H1    14.22572   10.55352    4.08818
       H    13.47407   13.89182    3.45263
       O    13.03825   13.06074    3.14901
      H1    13.63075   12.28576    3.17119
       H     9.73301    7.97991   -4.87156
       O    10.24218    8.77996   -4.83421
      H1     9.62859    9.36297   -4.43344
       H    13.21440    3.53961   -0.45228
       O    12.82766    4.22586    0.10098
      H1    13.43186    4.46778    0.83313
       H     9.79914   12.70498    2.91790
       O     9.23347   12.53428    2.10422
      H1     9.75489   12.58400    1.24312
       H     8.22304    5.02339    0.85053
       O     8.62215    5.74642    1.35285
      H1     9.47183    5.41404    1.69534
       H    17.44212    6.77004    1.19182
       O    17.58147    7.19680    0.28182
      H1    17.61238    6.43307   -0.25179
       H     9.28538    5.98518   -3.94608
       O     8.70734    6.60027   -4.48357
      H1     7.92200    6.83517   -3.98824

