174
frame 8 | Written by MDAnalysis XYZWriter (release 2.4.3)
       H    -1.97442    8.39375    8.34900
       O    -2.24027    9.20146    8.72891
      H1    -2.59764    9.01105    9.62073
       H    -2.14153   13.02905    3.33018
       O    -2.15110   13.97160    3.12011
      H1    -3.04289   14.15477    2.76901
       H    -5.03519   18.04090    4.55577
       O    -5.84475   17.51638    4.64796
      H1    -5.84001   17.00304    3.84316
       H    -9.18166   16.00025    8.55602
       O    -9.46889   15.85251    7.61907
      H1    -9.06270   16.60153    7.13925
       H    -6.31631   15.95925   12.62498
       O    -6.37579   16.09645   13.59074
      H1    -6.86302   15.27619   13.94794
       H    -9.90160   16.31060   12.72829
       O    -9.85052   15.34868   12.54293
      H1   -10.72988   15.05543   12.75739
       H    -7.13703   13.27912    7.44397
       O    -6.85441   14.14094    7.80548
      H1    -7.59710   14.49536    8.35406
       H    -2.69366   19.83321    3.31586
       O    -2.52707   18.96641    2.96414
      H1    -3.33769   18.72914    2.49067
       H    -8.39599   17.46988    4.94433
       O    -8.46160   17.61049    5.90235
      H1    -7.65534   17.99100    6.02788
       H    -4.13359   15.94573    8.06503
       O    -3.60167   15.90203    8.86227
      H1    -3.01965   15.09968    8.62481
       H    -8.75008   14.60573   13.66246
       O    -7.98021   14.23793   14.16520
      H1    -7.76628   13.43869   13.70488
       H     2.09250   16.11971    6.89505
       O     2.66945   16.83930    7.22889
      H1     2.59788   17.66547    6.66174
       H    -0.78793   17.87005    4.28634
       O    -0.09950   17.35587    4.71201
      H1     0.64539   17.94218    4.60447
       H    -9.57292   15.98039    3.43746
       O    -9.89813   16.88687    3.48001
      H1   -10.41528   16.80433    4.28954
       H    -5.86804   12.22672   13.55554
       O    -6.67082   12.03327   13.08990
      H1    -6.54772   12.19245   12.11401
       H    -0.63671   10.76504    9.13405
       O    -0.45627   11.74079    9.17133
      H1    -0.97087   12.10503    8.46353
       H     1.14437   14.30228    6.13476
       O     1.31567   14.59471    7.09463
      H1     1.95867   13.86211    7.27843
       H    -0.45831   14.89624    2.66761
       O     0.36559   15.39015    2.79931
      H1     0.18182   16.18462    3.38955
       H    -0.96350   11.00156   12.44640
       O    -1.12200   10.08120   12.38876
      H1    -1.53281    9.97335   13.27577
       H    -5.55065   19.51215    6.70674
       O    -6.41865   19.23029    7.10694
      H1    -6.94227   20.01525    7.20221
       H    -3.92633   11.18170   11.18433
       O    -3.83997   10.30556   11.59224
      H1    -2.95722   10.32500   12.00668
       H    -5.17015   13.25490    2.40565
       O    -4.76575   14.07325    2.13890
      H1    -5.39103   14.80171    2.24812
       H    -5.24973   11.51885    3.80865
       O    -5.78376   11.35700    3.01835
      H1    -6.68190   11.74393    3.07819
       H   -11.92751   14.19819    9.04370
       O   -11.31145   14.37432    9.75079
      H1   -10.63836   13.65066    9.54529
       H    -2.00130   16.44245   11.85022
       O    -1.73921   15.84725   11.15017
      H1    -2.50453   15.98106   10.54312
       H     0.65116   17.38254   13.61183
       O    -0.11870   17.89040   13.86814
      H1    -0.78161   17.19595   13.94777
       H    -1.88168   14.31518    6.98018
       O    -1.56603   14.28878    7.88278
      H1    -0.65439   14.59638    7.93673
       H    -1.39706   14.59767   14.61660
       O    -1.41116   15.25144   13.91856
      H1    -1.09311   14.73384   13.19149
       H   -10.09984   13.75112    4.56738
       O    -9.80296   14.12342    3.69266
      H1   -10.66692   13.97307    3.24574
       H    -4.62422   18.15471    0.23705
       O    -4.76429   18.14657    1.17227
      H1    -4.97054   19.05963    1.46794
       H     0.05364   15.42133   11.07272
       O     0.86589   15.03720   11.51046
      H1     0.67045   14.07380   11.68131
       H    -3.87985   17.42103   12.09757
       O    -3.07961   17.51589   12.67028
      H1    -2.97280   18.46392   12.77504
       H     2.20302   15.73658   10.34599
       O     2.90818   16.35152   10.12252
      H1     2.78883   16.50234    9.20475
       H    -1.46212   11.07841    4.86246
       O    -1.33546   11.67513    4.15499
      H1    -0.97944   11.13887    3.40834
       H   -11.80346   12.58531    5.54569
       O   -11.07913   13.07720    5.86472
      H1   -10.42029   12.43459    6.15411
       H     1.05842   12.06851   12.24107
       O     0.29123   12.54586   11.90469
      H1     0.09388   12.29054   10.95055
       H    -4.79828    7.98696    8.32681
       O    -5.53986    8.52315    8.32417
      H1    -6.22246    7.92241    8.01806
       H    -5.22193   15.82747   10.24828
       O    -5.57565   16.31448   10.96078
      H1    -5.71514   17.18875   10.61886
       H    -9.53145   18.56885   12.82117
       O   -10.11817   18.20910   13.53733
      H1   -10.83911   18.77713   13.63616
       H    -7.22547   15.93309    1.81220
       O    -6.36353   16.13375    2.24163
      H1    -5.91185   16.85378    1.77367
       H    -7.65534   19.17009   11.04323
       O    -8.21698   19.50329   11.70627
      H1    -8.64972   20.25896   11.33325
       H    -4.29752   13.54876   14.71786
       O    -4.39238   12.58473   14.80584
      H1    -4.79780   12.43830   15.63546
       H    -2.37808    9.37485    6.86957
       O    -2.27648    9.55546    5.95139
      H1    -3.01974   10.16570    5.64181
       H     0.42390   12.42094    4.45030
       O     1.01542   13.21136    4.53148
      H1     0.63961   13.87301    3.91792
       H    -6.20713   16.88674   15.26501
       O    -6.12110   17.37674   16.11687
      H1    -5.21709   17.54290   16.26561
       H    -0.89864   17.46771    6.59937
       O    -1.49475   17.72916    7.37333
      H1    -2.02288   16.93519    7.59173
       H   -10.81387   15.86242    6.25265
       O   -11.45924   16.26845    5.71618
      H1   -11.85518   15.46010    5.28284
       H    -6.37781   13.40171    9.66143
       O    -6.31494   12.62434   10.29569
      H1    -6.56698   11.88403    9.67888
       H    -5.52665   19.58392   10.07535
       O    -6.20188   18.90401   10.01689
      H1    -6.30665   18.81125    9.05314
       H    -7.36675   16.05259   10.36938
       O    -8.23347   15.77358   10.04271
      H1    -8.77096   15.80039   10.82641
       H    -9.54360   11.63626    8.13056
       O    -9.11358   11.67716    7.21417
      H1    -9.41202   10.85663    6.86133
       H    -5.59449   16.43386    5.99258
       O    -5.17087   15.83702    6.65978
      H1    -5.87542   15.16470    6.91654
       H    -3.19059   15.16860   14.05779
       O    -4.02650   15.21810   14.58274
      H1    -4.62802   15.54860   13.94298
       H    -9.33053   11.31618   10.21260
       O    -9.95545   11.98148    9.79371
      H1   -10.80752   11.60227    9.93979
       H    -6.28930   10.31217    7.59286
       O    -6.53411   11.21083    7.47669
      H1    -7.50752   11.13157    7.23727
       H     1.87368   11.65644    9.80690
       O     2.81060   11.58923    9.83586
      H1     3.12609   10.91756   10.43139
       H    -3.85103   14.95615    5.58283
       O    -2.98580   14.56568    5.61194
      H1    -2.69637   14.45900    4.74235
       H    -4.00316   12.50456    5.76066
       O    -4.58102   11.84755    5.36428
      H1    -5.13279   11.51781    6.08691

