174
frame 9 | Written by MDAnalysis XYZWriter (release 2.4.3)
       H   -11.82197   10.17043    3.04288
       O   -12.55755   10.71560    2.88803
      H1   -12.19480   11.60562    2.91824
       H   -12.99147   17.37468   -0.56443
       O   -13.46842   18.02458    0.02694
      H1   -12.94396   18.83880   -0.07668
       H   -11.82931   15.74685   -2.08546
       O   -12.28368   15.87717   -1.24216
      H1   -11.85642   15.40267   -0.53815
       H    -1.60744   17.35510   -1.91119
       O    -1.97313   17.19853   -1.01225
      H1    -1.70383   18.00036   -0.51244
       H    -2.53013   12.68852    3.09237
       O    -2.82625   13.59586    3.09167
      H1    -3.77516   13.49490    2.84093
       H    -9.40559   18.85927    1.74296
       O   -10.04503   18.43685    1.12032
      H1   -10.74884   18.09328    1.70748
       H    -6.68143   17.91969    4.15104
       O    -6.26656   17.06629    4.07976
      H1    -6.32764   16.80281    3.16672
       H    -8.39650   16.00074    8.48758
       O    -8.59340   15.60593    7.60947
      H1    -8.92506   16.36023    7.11218
       H    -6.24820   13.29830    8.01420
       O    -6.13880   14.22594    7.78211
      H1    -7.05352   14.60293    7.84224
       H    -9.31280   11.48742   -0.35784
       O    -8.47840   11.41184    0.01797
      H1    -7.98498   12.15093   -0.30850
       H    -2.69313   19.32034    3.95050
       O    -2.57242   18.44672    3.57992
      H1    -3.44585   18.08037    3.32515
       H   -13.44030   18.26414    3.58198
       O   -14.16272   18.69067    4.14790
      H1   -14.10349   18.37526    5.04376
       H    -6.25197   18.09171   -3.99263
       O    -7.06828   18.50142   -3.81232
      H1    -6.90710   19.05916   -3.07838
       H    -8.94378   17.69685    4.92269
       O    -8.80410   18.47162    5.59016
      H1    -7.95161   18.33912    6.02043
       H    -3.39677   15.66821    8.23087
       O    -2.85911   15.49371    8.99266
      H1    -2.33503   14.61610    8.79126
       H   -12.81347   17.48656    1.82644
       O   -12.27547   17.64677    2.62620
      H1   -11.82636   16.82513    2.88342
       H    -8.71806   12.24034    3.25369
       O    -8.34338   11.50876    2.78822
      H1    -8.54069   11.60912    1.86063
       H    -1.31619   18.07352    4.99207
       O    -0.71222   17.64119    5.63379
      H1     0.00797   18.28986    5.41256
       H    -9.78667   15.40457    4.02151
       O    -9.95646   16.33032    4.24748
      H1   -10.55656   16.22223    4.99240
       H    -5.95633    8.84754    1.81085
       O    -6.23634    8.07563    1.28066
      H1    -5.60768    8.13532    0.54987
       H    -7.05557   15.74873   -2.90012
       O    -6.44035   15.48841   -2.20134
      H1    -6.48220   14.51496   -2.13250
       H    -3.46036   16.81478   -4.29360
       O    -4.32046   17.33695   -4.27223
      H1    -4.44351   17.45057   -3.30674
       H    -1.66864   14.87431    3.42353
       O    -0.85650   15.39382    3.40787
      H1    -0.95784   15.95063    4.13762
       H    -8.93592   14.07504   -2.10188
       O    -9.54460   14.14109   -1.34950
      H1    -9.93424   13.29318   -1.25832
       H    -8.66189   16.47312   -5.12734
       O    -8.57991   16.30104   -4.16590
      H1    -8.20420   17.14813   -3.88540
       H    -6.32728   13.07816    2.15163
       O    -5.51078   13.58681    1.86858
      H1    -5.76832   14.50747    1.93430
       H    -5.65244   10.59334    3.98871
       O    -5.92348   10.34100    3.11379
      H1    -6.79492   10.73000    2.96538
       H   -11.99251   14.80321    8.39551
       O   -11.45651   15.55454    8.27389
      H1   -10.60043   15.27628    7.84215
       H    -5.69572    9.63953   -0.95194
       O    -4.81973    9.61625   -0.65752
      H1    -4.73499   10.07773    0.14592
       H    -0.38715   15.85197    1.67311
       O    -0.19340   15.66415    0.73114
      H1    -0.83973   16.04237    0.12748
       H    -2.15142   13.66370    7.13527
       O    -1.59569   13.50171    7.90727
      H1    -0.67551   13.68298    7.72294
       H   -10.57760   13.52759    4.27589
       O    -9.89932   13.57849    3.49507
      H1   -10.44092   13.89419    2.77227
       H    -5.23868   18.58830   -0.11309
       O    -5.71563   19.17503    0.48319
      H1    -5.11973   19.62045    1.12969
       H    -1.84438   11.23993    4.41144
       O    -1.19327   11.50234    3.75588
      H1    -0.95172   10.64262    3.30933
       H   -12.35463   13.25390    5.96225
       O   -11.49033   13.58324    5.69059
      H1   -10.92424   13.16967    6.42003
       H    -0.74354   19.83341    0.72376
       O    -1.56612   19.48004    0.44306
      H1    -2.24788   19.41489    1.15109
       H    -9.29447    9.95430    3.15500
       O   -10.12602    9.43195    3.29686
      H1    -9.80516    8.50481    3.27107
       H   -14.17246   17.99561    8.00925
       O   -14.12380   18.20095    7.03418
      H1   -13.44157   17.57053    6.69516
       H    -5.93885   12.30899   -1.88285
       O    -6.39543   12.89824   -1.21124
      H1    -5.80958   13.06348   -0.48586
       H    -4.19568   15.74348   10.14567
       O    -4.96592   16.20705   10.63047
      H1    -5.08255   17.06937   10.20321
       H    -7.19744   16.26489    1.10562
       O    -6.28114   16.51397    1.37682
      H1    -6.02993   17.40283    1.18846
       H    -3.71499   17.19079   -1.22768
       O    -4.53405   17.62622   -1.54706
      H1    -5.27685   17.03774   -1.41478
       H   -11.78832   11.25043    0.25306
       O   -11.34439   11.87432   -0.35355
      H1   -12.13334   12.24751   -0.82506
       H    -8.83342   15.52872   -0.00264
       O    -8.99200   15.82257    0.86953
      H1    -9.27726   16.75377    0.81396
       H    -1.97187    9.86099    5.94848
       O    -2.74957   10.05541    5.40312
      H1    -3.43018   10.63653    5.87338
       H     0.50180   12.50473    4.20322
       O     0.78199   13.41351    4.26713
      H1     0.14173   13.94449    3.78115
       H    -1.41895   17.83405    7.23914
       O    -1.83634   18.09544    8.08392
      H1    -2.24545   17.31787    8.48784
       H   -11.91429   16.43262    6.89985
       O   -12.25428   16.69322    5.96979
      H1   -12.71392   15.89462    5.69940
       H    -5.33078   13.80314    9.58149
       O    -5.45577   13.08437   10.15879
      H1    -5.69745   12.33755    9.55688
       H    -5.70850   19.32077    9.79036
       O    -6.25547   18.51801    9.73293
      H1    -6.58954   18.41181    8.84595
       H    -7.04024   16.09348   10.53821
       O    -7.94348   16.00621   10.24135
      H1    -8.55724   15.88101   10.99805
       H    -9.11123   11.93283    7.87543
       O    -9.14744   12.02844    6.91068
      H1    -9.21518   11.13949    6.70650
       H    -5.04300   16.31211    6.05020
       O    -4.51637   15.98278    6.81001
      H1    -5.19024   15.37424    7.23315
       H    -7.68681   10.34290   -1.07716
       O    -7.21163    9.64743   -1.65887
      H1    -7.56905    8.81438   -1.42233
       H    -6.81177   10.64386    8.26626
       O    -6.70692   11.57927    8.03939
      H1    -7.58258   11.76940    7.66301
       H   -11.11533   13.54302    0.92316
       O   -11.21717   14.44736    1.32043
      H1   -10.47900   14.95781    0.98161
       H    -3.74886   14.67560    6.03892
       O    -3.22095   13.86435    5.86132
      H1    -2.99035   13.81361    4.96330
       H    -4.57368   12.52060    5.99057
       O    -4.99490   11.67359    5.89849
      H1    -5.64470   11.58286    6.63807

