174
frame 11 | Written by MDAnalysis XYZWriter (release 2.4.3)
       H   -16.34604   -7.27335    8.80466
       O   -17.11571   -7.79991    8.98205
      H1   -17.91340   -7.18536    8.83396
       H    -7.26626   -9.73762    3.91724
       O    -6.63633   -9.53459    4.61060
      H1    -7.04906   -8.79855    5.10936
       H   -13.02573  -11.35076    9.05868
       O   -13.52313  -11.74721    8.31998
      H1   -13.91554  -10.97974    7.95677
       H   -14.34478  -13.40602   -1.30173
       O   -14.47498  -14.34962   -1.55142
      H1   -15.44027  -14.38137   -1.47947
       H    -8.04906   -8.54210    9.22382
       O    -8.97398   -8.45142    8.83358
      H1    -9.24877   -9.39696    8.71602
       H   -17.04659  -12.30601    1.75527
       O   -17.01328  -11.46775    1.31323
      H1   -16.39594  -10.97299    1.90206
       H   -11.82734   -6.86266   10.21085
       O   -12.74764   -7.16644    9.95383
      H1   -13.17548   -7.02827   10.83051
       H    -9.49405  -12.26284    7.48121
       O    -9.54127  -12.37966    6.53613
      H1   -10.51123  -12.57585    6.41382
       H    -8.72993   -8.82720    1.85553
       O    -8.02626   -9.41209    2.10611
      H1    -7.23911   -8.85210    1.97379
       H    -9.69469  -11.99856   10.00349
       O    -8.92750  -11.48414    9.79735
      H1    -8.23240  -12.13763    9.73996
       H   -10.33312   -8.57102   11.49164
       O   -10.36769   -9.50759   11.79904
      H1   -11.13057   -9.83733   11.25264
       H   -11.81266   -5.22712    3.09960
       O   -12.19679   -5.19543    4.03268
      H1   -11.43695   -5.60327    4.56004
       H   -17.39165  -10.65344    7.72822
       O   -17.40532  -10.14613    6.86527
      H1   -17.11401   -9.23641    7.22278
       H   -16.89814  -15.69466    4.62699
       O   -17.50874  -14.96606    4.43555
      H1   -16.98506  -14.19941    4.71219
       H   -10.96845  -12.68948    0.32921
       O   -11.47815  -13.01201    1.12100
      H1   -10.67823  -13.09972    1.66072
       H   -10.14552  -12.65049   -1.64251
       O    -9.74865  -11.88846   -1.15661
      H1   -10.27140  -11.12176   -1.44216
       H   -15.31771   -6.35270    9.97649
       O   -15.25020   -5.86247    9.15754
      H1   -14.30781   -5.63505    9.03167
       H    -8.06663  -16.30771    7.04053
       O    -9.00207  -16.67530    6.97990
      H1    -9.38856  -16.17175    7.69296
       H   -18.34513  -10.25200    0.97644
       O   -18.95889   -9.56290    0.58077
      H1   -19.45086  -10.14722   -0.09378
       H   -14.76853  -12.77541    9.08264
       O   -15.56157  -13.27982    9.11055
      H1   -15.70641  -13.57594    9.99412
       H   -15.85307   -3.89320    2.95235
       O   -16.19080   -4.37061    2.20227
      H1   -15.92633   -5.31189    2.28405
       H   -11.10768   -9.65975    1.63839
       O   -10.86152   -8.73865    1.43040
      H1   -10.64810   -8.74955    0.50695
       H   -14.15315  -13.06002    1.62907
       O   -14.46337  -13.70214    2.24273
      H1   -13.69112  -14.02221    2.73051
       H   -11.23430  -16.24641    2.93954
       O   -10.32638  -16.44229    2.82471
      H1    -9.93264  -15.93225    2.08645
       H   -17.68344  -11.88217    4.47229
       O   -18.60442  -11.86930    4.70545
      H1   -18.76282  -11.09028    5.25284
       H   -11.45398  -10.35610    4.03135
       O   -12.32710  -10.53104    3.68705
      H1   -12.74707  -10.76375    4.51389
       H    -9.63826   -7.34998    9.87880
       O   -10.08316   -6.86738   10.63232
      H1    -9.46364   -6.17619   10.73568
       H   -13.69703   -4.11069    4.63135
       O   -14.42342   -3.46791    4.54066
      H1   -15.15330   -3.76902    5.11676
       H    -9.64077  -10.91079    5.35911
       O    -9.65699  -10.13815    4.70430
      H1    -8.89052  -10.17281    4.15362
       H   -13.31571   -9.99134   10.96561
       O   -12.62260   -9.82609   10.33342
      H1   -12.59694   -8.85697   10.22100
       H   -17.91927  -14.53058    2.55435
       O   -17.90512  -14.07993    1.71892
      H1   -18.80884  -13.89926    1.41914
       H   -16.21671   -9.15078   -2.45026
       O   -15.49357   -9.59861   -2.00296
      H1   -15.86284  -10.50251   -1.79571
       H    -7.66157  -14.71438    3.67105
       O    -7.00203  -14.85538    4.32793
      H1    -7.10092  -15.69979    4.72104
       H   -18.91764  -10.20228    3.55945
       O   -19.20733   -9.34090    3.38999
      H1   -19.29070   -9.28592    2.40634
       H   -13.89493   -7.62065    5.68645
       O   -13.12216   -8.05673    6.16505
      H1   -13.19238   -7.72969    7.08619
       H   -16.79760  -12.56726   -2.09718
       O   -16.09479  -12.27016   -1.48170
      H1   -16.50312  -12.08379   -0.64466
       H   -15.36786   -8.99187    2.43660
       O   -15.08110   -9.88889    2.62004
      H1   -14.11803   -9.80964    2.78562
       H    -9.92813   -7.07681    5.83791
       O   -10.78097   -6.61152    5.88044
      H1   -11.52454   -7.18942    5.81785
       H   -11.64452   -5.73984    1.28863
       O   -10.87239   -5.21893    1.56840
      H1   -10.11624   -5.75146    1.28177
       H   -11.10570  -14.37414    9.56548
       O   -11.08608  -13.50695    9.93835
      H1   -11.78839  -13.46551   10.59168
       H   -15.21280  -12.42317    3.49688
       O   -15.69182  -12.60056    4.29846
      H1   -15.44907  -11.82226    4.81437
       H   -17.11171  -11.94630    9.22175
       O   -17.94783  -11.51610    9.01032
      H1   -18.21551  -11.14693    9.82388
       H   -14.64658  -16.14812    8.09507
       O   -15.24920  -15.44722    7.68888
      H1   -15.01798  -14.65523    8.15409
       H    -7.63525  -12.94236    1.57713
       O    -8.03173  -13.76992    1.85834
      H1    -8.25897  -14.25650    1.04960
       H   -14.97855   -7.25744    1.70379
       O   -15.75465   -7.25315    2.26070
      H1   -16.53045   -7.26424    1.69366
       H   -10.66795   -5.51360    7.41989
       O   -10.06055   -4.98383    7.99625
      H1   -10.76947   -4.36306    8.22666
       H   -12.89845   -8.23968   -1.88841
       O   -13.43899   -7.51215   -1.50481
      H1   -12.98917   -6.70333   -1.63710
       H   -12.43276  -12.44689    6.96245
       O   -12.02011  -12.76231    6.16383
      H1   -12.42705  -13.63927    6.08784
       H   -15.78400  -10.49706    6.55188
       O   -14.81006  -10.44624    6.33918
      H1   -14.60210   -9.49331    6.29233
       H   -14.66545  -13.82072    5.17637
       O   -13.99175  -14.46873    5.45541
      H1   -14.41866  -14.88080    6.27029
       H    -6.67050  -12.77160    5.33332
       O    -6.96444  -12.32210    6.11446
      H1    -7.89050  -12.61040    6.19296
       H    -8.45188   -8.08719    6.82941
       O    -8.59451   -7.92643    5.91687
      H1    -9.10582   -8.69850    5.62010
       H   -13.75473  -16.79353    3.21905
       O   -13.06864  -16.26056    3.53564
      H1   -13.33692  -15.85082    4.36115
       H   -15.34509   -6.18416    5.23726
       O   -15.45248   -7.14764    4.94858
      H1   -15.58259   -7.06829    3.98293
       H   -17.51963   -6.99419    4.94719
       O   -18.34896   -6.52902    5.09479
      H1   -19.05847   -7.05352    4.89191
       H   -10.63228   -8.98504   -2.25806
       O   -11.14463   -9.37307   -1.55322
      H1   -11.82447   -9.93032   -2.03385
       H   -13.89452  -15.47628   -0.10414
       O   -13.58632  -16.29099    0.34895
      H1   -13.55023  -15.91011    1.21010
       H   -13.18481   -7.44622    0.24080
       O   -13.21131   -7.11322    1.13453
      H1   -12.52993   -7.55427    1.61968

