174
frame 12 | Written by MDAnalysis XYZWriter (release 2.4.3)
       H    -4.25793   -3.26810  -11.79747
       O    -3.45862   -3.58200  -12.28988
      H1    -2.79139   -3.04741  -11.81923
       H    -0.19282  -12.75652   -6.16031
       O    -0.74310  -13.58877   -5.97854
      H1    -1.18469  -13.41174   -5.14209
       H    -6.09022   -4.34304  -15.96498
       O    -5.86144   -4.47839  -15.06968
      H1    -4.99294   -4.91109  -15.16621
       H    -4.47725  -13.66096  -13.37765
       O    -4.52905  -13.47134  -12.47327
      H1    -3.84658  -14.07329  -12.01482
       H    -8.83260  -11.93968  -10.24866
       O    -8.49896  -11.37378  -10.98527
      H1    -7.64501  -11.01542  -10.75068
       H    -1.68826   -5.87787   -2.81768
       O    -1.50277   -6.52406   -3.45217
      H1    -2.22423   -7.18430   -3.36007
       H    -2.06589   -8.63093  -14.63554
       O    -1.13095   -8.58054  -14.50074
      H1    -0.65385   -8.61474  -15.34687
       H     2.76483   -4.40786   -9.40377
       O     2.04088   -4.87411   -9.83871
      H1     2.25771   -5.79464   -9.77203
       H     1.04372  -11.48896   -5.07265
       O     1.20969  -11.43450   -6.03949
      H1     2.02728  -11.96743   -6.15389
       H     1.07947   -5.48525   -5.76220
       O     1.57860   -4.64285   -5.72337
      H1     1.84657   -4.52136   -4.82638
       H    -1.04039   -3.45975   -8.28123
       O    -1.17261   -2.47606   -8.36452
      H1    -1.75951   -2.11354   -7.61727
       H    -0.39054   -6.34730   -9.81150
       O    -0.48848   -7.04381  -10.53102
      H1    -1.36481   -6.88360  -10.88435
       H    -6.76936   -6.75423   -8.92968
       O    -7.34402   -7.39745   -9.46703
      H1    -8.01116   -6.80004   -9.84916
       H     2.18861   -9.41657  -10.18860
       O     2.43632   -8.50731  -10.04685
      H1     3.40313   -8.43173  -10.16499
       H     0.17009   -4.73170   -9.13375
       O    -0.60976   -5.08605   -8.64556
      H1    -0.23561   -5.47127   -7.84564
       H    -2.27300   -1.42896  -13.97266
       O    -2.53967   -2.30756  -14.41381
      H1    -2.96996   -2.74864  -13.66793
       H    -9.76419   -5.49705   -7.57705
       O    -8.96051   -5.56733   -7.05500
      H1    -8.32857   -6.04121   -7.59675
       H    -4.28078  -11.84524   -4.59999
       O    -4.18401  -12.76250   -4.84490
      H1    -4.95061  -13.10786   -5.28059
       H    -6.63768   -8.93209  -12.03484
       O    -6.31816   -9.29526  -11.20698
      H1    -6.37190   -8.63221  -10.54985
       H    -2.40744   -4.96640   -5.79079
       O    -3.18154   -4.53785   -6.13802
      H1    -3.27749   -3.75012   -5.60637
       H     0.99942  -10.88959   -9.30002
       O     1.44175  -11.08192  -10.14116
      H1     0.58277  -11.14412  -10.63763
       H    -9.60051   -6.13884  -11.73117
       O    -9.61314   -6.36445  -10.81631
      H1   -10.45478   -6.02532  -10.50542
       H    -6.03488  -12.47234  -12.70653
       O    -6.78255  -12.29038  -13.26110
      H1    -7.47475  -11.94596  -12.62589
       H    -6.38776   -2.91808  -10.81293
       O    -5.57646   -2.34954  -11.04130
      H1    -5.84871   -1.60439  -11.59618
       H    -9.66871   -9.81299  -11.10632
       O   -10.29180   -9.16619  -11.42892
      H1   -10.05466   -8.33711  -11.05550
       H    -7.17055   -9.12907   -7.97611
       O    -7.26038   -9.67686   -7.19987
      H1    -7.02764   -9.05641   -6.48237
       H    -1.66478  -13.46468   -9.20571
       O    -1.12295  -13.74959  -10.00894
      H1    -1.08623  -12.89972  -10.46103
       H   -10.24926   -9.31556   -7.68960
       O   -10.01808   -9.80067   -6.85567
      H1    -9.09870   -9.85592   -6.95944
       H    -6.89652   -5.76103  -14.24496
       O    -7.27593   -6.51725  -13.77654
      H1    -8.14409   -6.20885  -13.58396
       H     2.07014   -8.57067   -7.69583
       O     1.93721   -8.52842   -6.75403
      H1     1.69362   -9.41694   -6.55153
       H    -2.49953  -15.76565  -12.15336
       O    -2.97396  -15.28295  -11.48932
      H1    -2.25389  -14.89442  -10.93258
       H     2.27625   -7.71473  -11.55809
       O     2.42700   -7.44476  -12.47086
      H1     1.53992   -7.19547  -12.77027
       H    -6.95819   -7.26514   -4.46320
       O    -6.66507   -8.09943   -4.86962
      H1    -6.91433   -8.80250   -4.23696
       H    -0.84692  -11.07957  -11.77715
       O    -1.15175  -11.13976  -10.88536
      H1    -0.94755  -10.30865  -10.47562
       H    -6.11518   -4.79880   -8.24386
       O    -6.05660   -5.68890   -7.85397
      H1    -5.83440   -5.55015   -6.96881
       H    -2.38474  -13.55788   -7.24626
       O    -2.91582  -13.64860   -8.06983
      H1    -3.31400  -12.75409   -8.18792
       H    -0.10606   -8.52507   -9.41917
       O    -0.39692   -9.26988   -8.88718
      H1    -1.28486   -9.00405   -8.66609
       H    -3.90405  -11.56748  -12.13968
       O    -3.73019  -10.68273  -11.84442
      H1    -2.81006  -10.82366  -11.56362
       H    -3.59945   -0.47034   -6.67385
       O    -3.76127   -0.72907   -7.61121
      H1    -4.11368   -1.63896   -7.73528
       H    -3.46543   -5.64866  -11.71413
       O    -2.99991   -6.52118  -11.59996
      H1    -3.42077   -7.08375  -12.20403
       H    -8.00153   -3.89102   -7.16835
       O    -7.62579   -3.15603   -6.78731
      H1    -7.45483   -2.49099   -7.45828
       H    -5.05710   -6.76035   -5.14707
       O    -5.18435   -5.77835   -5.13223
      H1    -4.39735   -5.44836   -5.54141
       H    -3.87786   -9.43123  -13.12607
       O    -3.84026   -8.54173  -13.50703
      H1    -4.42352   -8.54247  -14.30738
       H    -1.29172   -2.17391  -10.04601
       O    -1.40060   -2.12627  -11.05586
      H1    -0.67259   -2.61579  -11.46472
       H    -8.19857   -3.56417   -9.84497
       O    -7.56419   -4.18511  -10.23757
      H1    -8.14042   -4.72394  -10.77237
       H    -4.92705   -2.85383   -9.36345
       O    -4.87970   -3.21974   -8.50987
      H1    -4.15629   -3.82431   -8.58841
       H    -3.09487   -5.92683  -15.33993
       O    -3.80990   -5.94662  -15.99729
      H1    -3.55543   -5.61895  -16.88906
       H    -5.31348   -7.24598  -16.02611
       O    -5.98783   -7.87702  -15.81359
      H1    -6.59974   -7.40110  -15.21626
       H     0.29034   -7.42201   -6.76794
       O    -0.12511   -6.68351   -6.32526
      H1    -1.00232   -6.94441   -6.12190
       H    -3.36302   -8.16499   -9.46865
       O    -3.07532   -8.64054   -8.68534
      H1    -3.42778   -9.54154   -8.75731
       H    -0.35938   -6.50583  -12.24873
       O    -0.01887   -6.37451  -13.15720
      H1    -0.32486   -7.06282  -13.72983
       H     0.47343   -4.62570  -12.76807
       O     0.64091   -3.66944  -12.69461
      H1     1.58808   -3.58339  -12.58959
       H    -6.77079  -11.15511   -7.77768
       O    -6.72006  -12.09256   -7.94962
      H1    -7.68776  -12.36921   -8.03207
       H    -4.38860  -10.86475   -9.95353
       O    -4.26413  -11.15415   -9.00092
      H1    -5.09448  -11.46855   -8.58083
       H    -3.59135   -9.11758   -5.41138
       O    -3.53266   -8.29049   -5.94507
      H1    -3.48307   -8.33756   -6.88333
       H    -0.67676  -11.71442  -13.98685
       O    -0.30439  -10.95778  -13.43480
      H1    -0.73889  -10.11668  -13.70800
       H    -4.17898  -10.11037   -3.10027
       O    -3.76630  -10.30746   -3.93058
      H1    -3.10050  -10.90329   -3.68992
       H    -4.39000   -4.70695   -2.11382
       O    -5.13648   -4.99171   -2.66218
      H1    -4.76771   -5.09678   -3.57917

