174
frame 0 | Written by MDAnalysis XYZWriter (release 2.4.3)
       H    -2.99539    2.83032   -3.14153
       O    -3.86636    2.44209   -2.99600
      H1    -4.09026    2.78442   -2.14275
       H    -5.01980   -3.70446  -10.88101
       O    -4.72808   -4.28919  -10.12987
      H1    -4.31058   -3.66930   -9.44958
       H     3.56592   -5.49145   -6.09530
       O     3.37030   -4.74507   -6.69211
      H1     2.91848   -5.01284   -7.51159
       H    -5.43881   -2.34457   -5.83510
       O    -5.73363   -2.49432   -6.73802
      H1    -5.34600   -1.86226   -7.32451
       H     4.74213   -2.93559   -4.07937
       O     4.09230   -3.64013   -3.76973
      H1     4.71213   -4.30128   -3.39687
       H     3.38967    3.06920  -10.86298
       O     4.08866    2.40505  -10.64528
      H1     4.47192    2.68956   -9.79761
       H    -1.81291   -2.26783   -3.57681
       O    -2.40498   -1.67360   -4.08350
      H1    -2.02448   -1.63918   -4.96872
       H     0.06737   -4.82089   -3.03082
       O    -0.12281   -4.18343   -3.75047
      H1     0.71895   -3.91172   -4.12308
       H    -4.44125    0.67843   -5.52766
       O    -5.30650    0.80257   -5.10155
      H1    -5.43003    1.73512   -4.82796
       H     0.88054    3.53161   -8.30953
       O     1.16548    4.48194   -8.10110
      H1     0.33452    4.98713   -8.09328
       H    -3.63377   -5.07606   -6.03795
       O    -4.32948   -5.24625   -6.67721
      H1    -4.54008   -6.18288   -6.77331
       H    -0.15768    1.64395   -7.99827
       O     0.64512    1.91258   -8.53220
      H1     0.41658    1.65346   -9.43955
       H    -5.37488   -1.90796   -3.26397
       O    -4.87568   -2.57039   -3.75872
      H1    -3.90225   -2.35044   -3.73598
       H    -1.30927   -5.12400   -6.40474
       O    -1.88048   -4.83365   -5.64510
      H1    -1.14158   -4.67464   -5.01589
       H    -0.71859   -2.94236  -10.40197
       O    -0.94560   -3.83311  -10.62219
      H1    -0.15480   -4.06423  -11.04097
       H    -1.92487   -5.18599    0.32888
       O    -1.99331   -5.09782   -0.63534
      H1    -1.74215   -4.19424   -0.81058
       H    -1.17677   -3.08993   -6.38251
       O    -0.82400   -2.21631   -6.41203
      H1    -0.96895   -1.83869   -7.25681
       H     3.00646   -2.21774   -0.83236
       O     2.63350   -2.81514   -1.51408
      H1     3.18627   -2.77763   -2.25285
       H    -0.30348   -2.06568   -1.15656
       O    -0.87687   -2.54056   -1.81620
      H1    -0.29663   -3.13633   -2.35090
       H    -6.96539    1.81106   -7.21508
       O    -7.10188    0.85297   -7.03541
      H1    -6.65057    0.65828   -6.18810
       H     1.04442    2.50522  -14.03565
       O     1.55378    2.41073  -13.21998
      H1     0.92595    2.22378  -12.51132
       H    -0.49977    5.96280   -2.23598
       O    -0.33656    4.98821   -2.08448
      H1    -0.84382    4.82150   -1.23038
       H     4.28764    6.36725   -4.02789
       O     4.10038    6.01321   -4.90994
      H1     3.17758    5.69974   -4.91149
       H     2.25276   -3.51211   -6.04419
       O     1.60291   -2.93924   -5.57765
      H1     0.81193   -2.89119   -6.11368
       H     4.78406    1.16932   -3.80987
       O     4.71517    0.34141   -3.25056
      H1     5.15136    0.54026   -2.42527
       H     5.57529    3.81255   -7.32618
       O     5.22973    3.24736   -8.03109
      H1     4.63183    2.64713   -7.61328
       H    -0.52365    1.21990  -11.80487
       O    -0.20318    1.82137  -11.18988
      H1    -0.82817    2.55786  -11.26747
       H     6.06917    0.23548   -9.69814
       O     6.65131   -0.08158  -10.41274
      H1     6.57180    0.65260  -11.02546
       H     1.37027    4.49834   -6.38009
       O     1.49186    4.77604   -5.44912
      H1     0.96386    5.60101   -5.38317
       H     1.00601    3.90030   -1.93575
       O     1.79165    3.34666   -2.03154
      H1     2.15390    3.28933   -1.14283
       H    -2.80731   -3.90213   -8.27500
       O    -3.38727   -3.12704   -8.23179
      H1    -4.00877   -3.29965   -7.54286
       H    -0.08846    1.09595   -5.05057
       O    -0.16357    0.83648   -5.98455
      H1     0.25696   -0.00889   -5.98515
       H    -1.86297    0.48931   -1.57311
       O    -1.10469    1.07900   -1.45766
      H1    -0.39989    0.73955   -2.00611
       H    -0.25649   -0.54779  -13.53851
       O    -0.79367    0.16542  -13.15551
      H1    -1.54814   -0.21917  -12.64445
       H    -3.57139    5.20299   -6.03175
       O    -2.69069    5.53849   -5.76235
      H1    -2.32856    4.78200   -5.26089
       H    -4.19208   -0.70800   -0.71121
       O    -4.70348   -0.81519    0.17634
      H1    -5.60660   -1.10179   -0.05461
       H     3.50897   -0.17962   -4.49754
       O     2.67288   -0.32068   -4.98696
      H1     2.47143   -1.26056   -4.98365
       H     3.34187    0.56958  -10.88849
       O     2.74373   -0.16973  -11.05170
      H1     2.70527   -0.18760  -12.02980
       H     1.39156    1.83198   -3.00229
       O     1.07537    0.96253   -3.36315
      H1     1.89463    0.67046   -3.91054
       H    -3.25665   -1.56862  -11.61403
       O    -2.90052   -0.67909  -11.54286
      H1    -2.89093   -0.60639  -10.59826
       H     2.96280    0.93660   -6.51873
       O     3.38153    1.41116   -7.25167
      H1     2.64338    1.61259   -7.85922
       H    -6.29405   -0.11937   -3.80979
       O    -6.98980   -0.42220   -3.29303
      H1    -7.44057   -1.13031   -3.74070
       H    -4.88174    1.26176   -9.07431
       O    -4.26766    1.94839   -8.99628
      H1    -4.23271    2.29555   -9.90467
       H    -2.36581   -0.45368   -7.81621
       O    -2.00073   -0.93848   -8.58408
      H1    -2.53350   -1.74928   -8.60409
       H     4.52151   -3.53713   -6.84565
       O     5.12846   -2.90137   -7.26253
      H1     5.26759   -2.30374   -6.50297
       H    -0.12894   -0.83977   -9.55246
       O     0.42487   -1.56375   -9.72718
      H1     1.10034   -1.25965  -10.33526
       H     3.33586    2.94177   -5.06412
       O     3.84145    2.84073   -4.24924
      H1     3.35625    3.00688   -3.37806
       H    -6.20404   -0.07762   -8.45962
       O    -5.48091   -0.60148   -8.90620
      H1    -6.00034   -1.15228   -9.49679
       H    -0.69007    1.70566    0.27397
       O    -0.56027    2.09099    1.17132
      H1    -1.40265    2.01398    1.69032
       H     0.40414   -6.26982   -6.91487
       O    -0.27347   -5.81061   -7.56458
      H1    -0.83378   -6.51858   -7.93478
       H    -2.26310    4.87640   -7.35375
       O    -2.40063    4.49289   -8.26017
      H1    -2.93287    3.70981   -8.04294
       H     5.24589   -0.85225   -4.46301
       O     5.61998   -1.65903   -4.91213
      H1     6.49413   -1.75650   -4.59728
       H     4.37484    4.80514   -8.44767
       O     3.76684    5.56658   -8.56593
      H1     2.92157    5.16309   -8.32981
       H    -0.23140    3.68526   -4.93331
       O    -1.12073    3.74995   -4.53453
      H1    -0.88441    4.21190   -3.67906
       H     4.39083   -2.86918   -9.26407
       O     3.84264   -2.62892  -10.00447
      H1     3.36891   -1.80334   -9.75736
       H    -2.88157   -0.50793   -2.84421
       O    -3.42799   -0.02948   -2.22094
      H1    -3.52816    0.89010   -2.64974
       H    -1.91327    0.70915   -6.30451
       O    -2.85200    0.59823   -6.58152
      H1    -3.21355    1.17231   -7.28141
       H     2.46137   -3.97070   -9.50594
       O     2.10575   -4.78821   -9.08815
      H1     1.16660   -4.83504   -9.01993

