174
frame 0 | Written by MDAnalysis XYZWriter (release 2.4.3)
       H     6.55637   -7.48341  -13.96508
       O     5.87335   -8.14314  -13.80079
      H1     6.41238   -8.72397  -13.29719
       H     7.84894   -5.65831  -14.01211
       O     8.54746   -6.09458  -13.48292
      H1     8.33333   -5.75257  -12.61096
       H     6.34560   -4.96615  -16.35411
       O     6.77742   -4.77741  -15.49016
      H1     6.13817   -4.40536  -14.85856
       H    10.58294   -6.98257  -15.89416
       O    10.47452   -7.33262  -16.79678
      H1    10.41920   -6.55083  -17.35450
       H     9.73192   -9.49096  -10.76136
       O     9.11241   -8.81282  -10.85258
      H1     9.68093   -8.05459  -10.96281
       H     7.73431   -8.60206   -9.70137
       O     7.05881   -8.55430   -9.02330
      H1     6.37039   -7.96739   -9.40236
       H     9.23847  -16.04309  -17.63949
       O    10.00537  -15.47277  -17.53874
      H1     9.68565  -14.62146  -17.89993
       H     5.32863  -16.24416  -14.89050
       O     6.13766  -15.73747  -14.66907
      H1     6.68108  -15.69081  -15.45547
       H     6.12169  -13.00086  -11.08241
       O     6.16217  -13.21154  -12.01816
      H1     7.07518  -13.39686  -12.24620
       H    10.82119  -16.67791  -14.31199
       O    10.99496  -17.49335  -13.92513
      H1    10.93709  -17.31098  -12.95972
       H     5.74494  -12.27856  -16.80874
       O     6.04649  -13.15230  -16.90960
      H1     6.07993  -13.58609  -16.05432
       H     3.36463   -5.49331  -18.55846
       O     3.70787   -6.15764  -19.15086
      H1     3.60298   -5.65958  -19.95940
       H    10.96143   -1.65812  -17.70223
       O    11.63546   -2.41285  -17.75681
      H1    11.21399   -3.28168  -18.02169
       H     1.80237   -8.31147  -11.90810
       O     2.35532   -7.53832  -11.58656
      H1     3.31288   -7.71722  -11.75886
       H     7.97384   -1.72290  -15.88453
       O     7.37840   -1.18235  -15.36162
      H1     7.65056   -1.42006  -14.47594
       H    14.42175   -6.58303  -12.73779
       O    14.65644   -5.83719  -13.25980
      H1    13.91407   -5.32582  -13.46189
       H    10.69586  -12.47802  -17.89930
       O    10.09038  -13.00248  -18.54404
      H1     9.23520  -12.60467  -18.32374
       H     5.13217   -6.16423  -10.25936
       O     4.99770   -7.08404  -10.15170
      H1     4.23508   -7.29027   -9.61665
       H     5.57283   -5.79211  -18.57227
       O     6.39857   -5.77481  -18.06916
      H1     7.05590   -5.29781  -18.56623
       H    11.84093   -3.80757  -14.48888
       O    12.58697   -4.39888  -14.23327
      H1    12.21281   -5.29520  -14.40163
       H     8.72953  -11.28885  -14.07678
       O     9.17966  -11.30573  -14.98991
      H1     8.90348  -10.48265  -15.41608
       H     0.50042  -11.02421  -18.38263
       O     1.21653  -10.58418  -18.86710
      H1     1.87781  -10.37822  -18.17619
       H    14.26424   -6.20127  -18.64578
       O    14.63432   -6.72005  -19.40433
      H1    14.97854   -6.00054  -19.95630
       H    11.67139   -8.55528  -16.95175
       O    12.31828   -9.29802  -17.05953
      H1    12.57472   -9.23254  -18.00150
       H     3.49528   -3.31366  -13.62541
       O     4.25768   -3.48222  -14.21698
      H1     4.35076   -2.75406  -14.91688
       H    15.09145  -11.42314  -18.47685
       O    15.99730  -11.15449  -18.40728
      H1    16.23723  -10.49606  -19.10489
       H    11.55611  -16.01643  -18.21621
       O    12.31610  -16.42565  -18.67882
      H1    12.68196  -16.99828  -17.98697
       H     3.61295  -14.96162  -13.55350
       O     3.47437  -15.48017  -12.73744
      H1     2.55719  -15.77868  -12.82578
       H     4.95326   -8.89556  -17.64937
       O     5.86314   -8.57314  -17.73840
      H1     5.78341   -7.65111  -17.76304
       H     3.43274  -13.60103  -18.87475
       O     3.71222  -14.37702  -18.32461
      H1     4.27847  -13.90421  -17.66329
       H     2.96933  -11.88632  -11.86707
       O     2.19310  -11.99126  -11.27530
      H1     2.55261  -11.89449  -10.39691
       H     5.59530  -10.07687  -14.93928
       O     5.30545  -10.75271  -15.56119
      H1     4.90144  -11.33991  -14.83008
       H     7.53236   -9.18177  -17.19311
       O     8.36006   -9.52615  -16.87651
      H1     8.93024   -8.75685  -16.91004
       H    11.86905  -11.51648  -11.27844
       O    11.14342  -10.96731  -11.54873
      H1    11.48241  -10.34723  -12.19931
       H    14.81138  -10.03885  -14.88958
       O    14.76048  -10.35942  -13.95997
      H1    14.39339  -11.22631  -14.12549
       H    12.64926  -12.63083  -14.78351
       O    13.56846  -12.63968  -14.33514
      H1    14.16596  -12.93399  -15.03470
       H     9.76707   -3.17436  -15.85012
       O     9.02355   -3.45829  -16.44144
      H1     8.42354   -4.02220  -15.82092
       H    12.77502   -8.53348  -12.36763
       O    12.39865   -8.96832  -13.15315
      H1    13.24732   -9.34747  -13.50183
       H     9.94423  -14.03966  -14.36540
       O    10.15090  -14.87825  -14.72269
      H1    10.12985  -14.73225  -15.72614
       H     9.94657   -4.81391  -18.81417
       O    10.91453   -4.84356  -18.77592
      H1    11.29071   -4.68760  -19.64335
       H     2.55640   -8.78901  -16.82357
       O     3.17018   -9.52081  -17.06983
      H1     3.57379   -9.69623  -16.27632
       H     2.38136   -6.93145  -15.82111
       O     1.66295   -7.50163  -16.04595
      H1     1.15902   -6.97869  -16.68007
       H    11.42095   -7.67175  -13.88980
       O    11.09100   -6.85169  -14.32770
      H1    10.29603   -6.56936  -13.84121
       H     8.13727  -10.93228  -17.83520
       O     7.81427  -11.75671  -18.26293
      H1     7.22378  -12.20122  -17.63935
       H    14.47422   -7.43519  -10.88812
       O    13.57105   -7.34827  -11.30328
      H1    12.91982   -7.01504  -10.58191
       H    13.99363   -8.78340  -16.50925
       O    14.78691   -8.68858  -16.09410
      H1    15.16337   -7.79446  -16.23387
       H    12.10209  -15.36974  -11.95885
       O    11.18516  -15.56529  -11.68096
      H1    10.66383  -15.43692  -12.47369
       H     9.39436  -13.95931  -12.08673
       O     9.23102  -13.01973  -12.30052
      H1    10.05318  -12.55873  -12.10796
       H    10.67090  -11.78017  -15.80485
       O    11.42491  -11.94739  -16.38982
      H1    11.84446  -11.10344  -16.44206
       H     2.42453   -3.14012  -18.43388
       O     3.23834   -3.64472  -18.16696
      H1     3.55633   -3.10921  -17.40595
       H    13.12173   -3.83781  -17.26965
       O    13.70470   -4.55109  -16.94898
      H1    13.57312   -4.58166  -15.99667
       H     8.16223   -9.50249  -12.25507
       O     7.61332  -10.17477  -12.80247
      H1     7.36485  -10.81572  -12.12328
       H    10.22449   -4.71274  -11.14474
       O     9.58678   -5.25117  -10.71921
      H1     8.88788   -4.63820  -10.37113
       H     3.76520   -5.69565  -14.66054
       O     4.00157   -6.44121  -15.18845
      H1     4.46379   -6.96584  -14.44971
       H     7.54947  -16.70146  -18.35096
       O     6.93706  -16.22346  -17.78855
      H1     6.30798  -15.89877  -18.44233
       H     3.17647  -12.79635  -13.86593
       O     3.92291  -12.23096  -13.53976
      H1     4.59143  -12.79409  -13.12007
       H     8.59693   -3.65896  -18.11552
       O     8.27985   -4.03755  -18.96397
      H1     7.54194   -3.55408  -19.37060
       H     7.70913  -15.28788  -12.73652
       O     8.22580  -15.50930  -11.98510
      H1     8.55529  -16.39669  -12.18059

