174
frame 8 | Written by MDAnalysis XYZWriter (release 2.4.3)
       H   -15.83539   -6.13481    9.72007
       O   -16.05806   -6.96555    9.22368
      H1   -16.84753   -6.63484    8.75157
       H   -18.80058    0.41225   10.22024
       O   -19.45321    0.43379   10.91295
      H1   -19.18611    1.21607   11.37646
       H   -16.58040    6.86535   10.16984
       O   -16.59763    7.32479   11.06278
      H1   -17.49911    7.76049   11.24841
       H   -16.96525    4.66876   18.09581
       O   -15.98488    4.72797   17.88418
      H1   -15.84956    5.69081   17.90643
       H   -16.06432    5.03578    7.12766
       O   -15.75236    4.20239    6.78596
      H1   -14.77446    4.22387    6.90369
       H   -16.78767    1.18649    5.61754
       O   -16.32394    0.68530    4.89018
      H1   -16.72648    1.02349    4.09819
       H   -12.04258    1.83727   12.56111
       O   -12.07970    0.90467   12.85576
      H1   -11.58834    0.92294   13.68355
       H   -16.30649   -5.22051   13.02393
       O   -15.62424   -4.55447   13.17083
      H1   -15.69848   -4.41479   14.13685
       H   -16.73804    2.82713    7.23732
       O   -17.11041    1.90217    7.27332
      H1   -18.00473    2.00015    7.64927
       H   -13.15584   -2.12731   15.36579
       O   -12.87542   -1.43852   14.68288
      H1   -12.34238   -1.98819   14.10287
       H   -14.35639    2.40856   10.34842
       O   -13.57532    2.39898    9.85392
      H1   -13.34560    1.49563    9.72479
       H   -13.63869    3.84255   14.84212
       O   -13.23804    4.29106   14.10234
      H1   -12.36316    4.68610   14.43843
       H   -14.85472    8.42392   10.58192
       O   -14.66543    9.28623   10.25650
      H1   -15.33893    9.81207   10.76857
       H   -18.66361    6.05046   15.38281
       O   -17.79029    5.66659   15.60954
      H1   -17.41861    5.00752   14.99849
       H   -15.78670   -2.81558   12.72978
       O   -16.02956   -1.93731   12.38406
      H1   -16.99883   -1.83019   12.49751
       H   -16.01053    4.14989   12.12300
       O   -15.95426    4.50057   13.02660
      H1   -15.63882    5.37931   13.04736
       H   -19.20672    2.37875   13.11759
       O   -18.63214    2.50926   12.38293
      H1   -17.70358    2.57912   12.50941
       H   -16.25385    5.42557    3.93513
       O   -16.75032    4.67095    4.20150
      H1   -16.31915    4.31186    5.01303
       H   -16.31306    6.81829   15.96063
       O   -15.39938    7.18430   16.02385
      H1   -14.94572    7.03633   15.18552
       H   -15.79845   -4.21659   11.17702
       O   -15.27671   -4.29106   10.36493
      H1   -14.37485   -3.99739   10.45083
       H   -17.46284   -6.82501   14.05966
       O   -17.73845   -6.54062   13.16469
      H1   -17.34909   -7.20275   12.55635
       H   -15.73051    1.82196   11.77829
       O   -15.95788    2.46930   11.13672
      H1   -16.37752    1.99052   10.32263
       H   -18.06152   -1.71543    3.10082
       O   -17.77403   -1.26633    2.33010
      H1   -17.03777   -1.74742    2.01277
       H   -16.75429    0.68642    8.58624
       O   -16.94567    0.34609    9.49818
      H1   -16.28053   -0.36955    9.73380
       H   -13.62954   -1.69481    4.53741
       O   -13.53942   -0.73480    4.58489
      H1   -14.36266   -0.28557    4.35175
       H   -18.26616   -3.03068   15.95592
       O   -18.33356   -3.97046   16.09897
      H1   -18.59370   -4.08270   17.01317
       H   -12.06892   -0.05409   11.42453
       O   -12.35649   -0.49194   10.57241
      H1   -13.26868   -0.63055   10.63412
       H   -15.17421   -0.11116   12.80916
       O   -14.83132    0.74010   13.09012
      H1   -13.87645    0.73307   12.91435
       H   -18.86528   -2.81066   19.42353
       O   -18.75203   -1.86447   19.29499
      H1   -19.60352   -1.40361   19.37303
       H   -15.05867    7.29409   12.55748
       O   -14.56485    6.85477   13.25817
      H1   -13.80110    6.39107   12.83974
       H   -19.41700   -2.52483   10.11696
       O   -18.90387   -2.75486    9.33794
      H1   -19.12007   -2.15378    8.61521
       H   -11.80721   -1.05445    7.27630
       O   -12.55632   -0.49860    7.35867
      H1   -12.96014   -0.57911    6.45312
       H   -16.89439    0.48600   18.82947
       O   -17.31669    0.37937   19.73287
      H1   -17.88225   -0.44585   19.66938
       H   -14.69237   -1.66084    9.07022
       O   -14.82655   -1.23555    9.92464
      H1   -15.35293   -1.90189   10.43991
       H   -12.43822    3.43698   11.10150
       O   -11.65042    3.60910   11.63739
      H1   -12.02792    3.84999   12.47019
       H   -20.12476   -1.94273    6.99153
       O   -19.78345   -1.06395    7.23916
      H1   -18.99184   -1.06475    6.70193
       H   -19.14299    2.75888   17.83934
       O   -19.60001    1.91321   18.01318
      H1   -18.89318    1.44381   18.51014
       H   -18.28016   -4.42898    4.73455
       O   -18.30148   -3.71925    4.06040
      H1   -17.40638   -3.81724    3.60618
       H   -17.01029   -6.64166   16.26677
       O   -16.54801   -6.07838   15.64269
      H1   -16.91250   -5.15975   15.78946
       H   -12.96298   -0.83735   16.91087
       O   -12.64878   -1.56367   17.53997
      H1   -11.83792   -1.94153   17.21796
       H   -19.48102    7.53485   12.19436
       O   -18.92738    8.29225   12.21307
      H1   -19.22605    8.72417   13.00024
       H   -17.15064   -1.03234    5.18363
       O   -17.76934   -1.55984    5.69449
      H1   -18.11118   -2.30320    5.12584
       H   -17.01850    7.46876    8.20972
       O   -17.18426    6.54382    8.03065
      H1   -18.17798    6.48853    7.83942
       H   -14.87431   -3.66379   16.65666
       O   -14.94414   -3.46968   15.72818
      H1   -15.35802   -2.59464   15.68755
       H   -19.12859   -5.91159    8.93721
       O   -18.63493   -5.32804    8.35639
      H1   -18.73146   -4.43325    8.80679
       H   -19.04883   -0.66455   12.21421
       O   -18.83384   -1.46065   12.69339
      H1   -18.77974   -1.23540   13.59871
       H   -15.79168    4.03322   16.29251
       O   -15.64586    3.31153   15.63176
      H1   -15.60623    3.64213   14.64984
       H   -17.44982   -1.01092   15.72254
       O   -18.37883   -1.23718   15.68358
      H1   -18.61061   -1.12680   16.61838
       H   -15.92816    1.84735   16.56519
       O   -16.10656    1.19320   17.27478
      H1   -15.24915    1.25794   17.82274
       H   -14.47954   -5.72486    6.94469
       O   -14.69004   -4.92449    6.52528
      H1   -15.14584   -4.38205    7.19119
       H   -15.47102   -0.16015   16.04112
       O   -15.61763   -0.83221   15.39730
      H1   -15.02937   -0.55900   14.67140
       H   -16.75399   -2.33610    6.97945
       O   -16.07192   -2.76354    7.57772
      H1   -16.51799   -2.85875    8.42403
       H   -18.81444   10.42959   10.04616
       O   -19.62433    9.98540   10.15981
      H1   -19.48181    9.42623   10.95665
       H   -13.08335   -6.06901   14.23476
       O   -13.07240   -5.56881   13.44750
      H1   -14.05445   -5.37447   13.40538
       H   -12.78010    4.39424    7.54424
       O   -13.14373    3.60937    7.09480
      H1   -13.08880    2.92167    7.81090
       H   -18.69189    5.49067   18.32035
       O   -18.60341    4.57084   17.96455
      H1   -18.38894    4.94070   17.05534
       H   -10.91115    0.78114   15.95008
       O   -10.70951    0.33244   15.13264
      H1   -11.45619   -0.29337   15.10954
       H   -12.20591   -2.52830    9.92587
       O   -12.66543   -3.31925    9.64741
      H1   -12.55010   -3.40302    8.69014

