174
frame 12 | Written by MDAnalysis XYZWriter (release 2.4.3)
       H     9.03508   -9.26426  -13.68777
       O     8.29415   -9.64860  -13.20690
      H1     8.60979  -10.59365  -13.04095
       H    16.18254  -18.92086  -16.08201
       O    15.26210  -18.90406  -16.32917
      H1    14.87001  -18.93685  -15.44799
       H    18.54563  -11.73698  -17.34233
       O    19.16293  -11.29388  -16.74603
      H1    18.59808  -10.88512  -16.05086
       H     8.43050   -4.43772  -16.24917
       O     7.84723   -4.26384  -16.98805
      H1     6.99949   -4.33180  -16.49130
       H    15.35728   -9.21502  -18.24958
       O    15.19535   -8.52068  -17.56940
      H1    15.90803   -7.90148  -17.71718
       H    12.01752  -10.54447  -11.89750
       O    11.42903  -10.45701  -11.08966
      H1    11.67017   -9.55008  -10.74113
       H     8.07017   -6.83756  -18.48986
       O     7.21687   -6.85831  -18.96836
      H1     7.31049   -6.34014  -19.78479
       H    13.70269  -14.04424  -16.94423
       O    13.93756  -14.80673  -16.38424
      H1    14.36050  -15.48369  -16.96559
       H    15.24128   -5.32220  -12.98359
       O    15.05020   -4.71827  -13.73425
      H1    14.09575   -4.48202  -13.71595
       H    20.21673   -5.85799  -14.43366
       O    19.76680   -5.07367  -14.70802
      H1    18.85368   -5.30288  -14.89878
       H     7.22385  -14.53634  -18.39886
       O     7.54181  -14.47232  -17.48178
      H1     8.16502  -13.73444  -17.39369
       H    12.13764  -17.30607  -15.91685
       O    11.71068  -17.34400  -16.74264
      H1    11.63387  -18.33152  -16.87724
       H    18.54425  -16.86139  -18.85930
       O    18.89915  -17.09032  -19.74044
      H1    19.87504  -16.88812  -19.58790
       H    13.16683   -7.36420  -17.61005
       O    12.32140   -7.71666  -17.85258
      H1    11.56360   -7.11346  -17.80936
       H     9.59134   -8.88139  -16.36438
       O     9.87320   -8.48948  -15.53791
      H1     9.67320   -7.56119  -15.50609
       H    13.78807   -1.05346  -16.19500
       O    13.16575   -1.27101  -16.86172
      H1    12.36732   -0.72218  -16.60501
       H    16.13539   -3.09184  -12.76572
       O    16.40993   -2.22937  -13.05751
      H1    16.33389   -2.35076  -14.04410
       H    17.29967   -5.64381  -17.77170
       O    17.12461   -5.93753  -16.85958
      H1    16.20937   -5.57568  -16.65241
       H    13.46899  -17.19880  -18.21376
       O    14.36478  -16.82647  -18.08480
      H1    14.86568  -17.46215  -17.53678
       H    18.73531   -5.73466  -20.09822
       O    19.71988   -5.69213  -20.00252
      H1    20.01290   -5.67918  -19.10751
       H    11.84129   -8.40166  -15.14509
       O    12.73566   -8.36070  -14.84705
      H1    13.25801   -8.26329  -15.63353
       H    13.52449  -13.28506  -18.88512
       O    13.72683  -12.79445  -18.08740
      H1    13.26628  -11.96494  -18.21223
       H    10.69279  -12.57037  -16.69629
       O    10.75914  -12.74067  -17.64926
      H1    11.44043  -13.43975  -17.58824
       H    12.68074  -19.02404  -13.85576
       O    13.32381  -18.34713  -14.02980
      H1    12.94377  -17.45144  -14.12847
       H    18.66036   -7.83753  -15.00223
       O    17.84574   -7.82526  -14.46206
      H1    18.21647   -7.75256  -13.56114
       H    13.95291   -3.25725  -19.31171
       O    14.82997   -2.88725  -19.15045
      H1    15.19562   -3.40169  -18.38289
       H    15.35817   -2.91050  -16.36378
       O    15.75597   -2.11061  -15.94693
      H1    16.52814   -1.85569  -16.49671
       H    15.25562  -10.96367  -19.14657
       O    15.29608  -10.07181  -19.62510
      H1    16.26208  -10.04988  -19.78040
       H     7.05077   -9.57842  -14.76927
       O     6.51229   -9.19805  -15.57265
      H1     5.63428   -9.02010  -15.27497
       H    12.44395  -14.80866  -11.07349
       O    12.33042  -13.88283  -11.40045
      H1    12.17339  -13.96305  -12.35439
       H    18.67151   -1.99865  -17.38026
       O    18.05821   -2.42548  -18.01527
      H1    17.78774   -1.73824  -18.62605
       H    17.72524    0.50065  -19.05314
       O    17.57552   -0.22720  -19.68174
      H1    16.62344   -0.25874  -19.91130
       H    17.35393  -15.20469  -17.44484
       O    17.79763  -16.05331  -17.41043
      H1    18.04568  -16.27907  -16.49145
       H     7.53863   -9.83083  -16.96094
       O     8.22936  -10.21314  -17.51946
      H1     8.13917   -9.73882  -18.39492
       H    15.03429   -9.83695  -11.31124
       O    15.57240   -9.13881  -11.00737
      H1    15.83122   -9.33447  -10.11534
       H    10.53994  -12.47845  -13.97360
       O    11.07585  -12.33615  -14.79261
      H1    11.78349  -11.68775  -14.60181
       H    14.12551  -15.84091  -13.21370
       O    14.81553  -16.19184  -12.61864
      H1    14.61746  -17.13674  -12.65553
       H    15.00984   -7.68387  -11.51213
       O    14.60036   -6.81706  -11.69525
      H1    14.55760   -6.37377  -10.84446
       H    11.72731   -5.06847  -12.95840
       O    12.10333   -5.42762  -13.74877
      H1    12.26676   -6.34718  -13.61719
       H     9.94835  -17.21878  -16.51346
       O     9.16790  -17.09198  -15.88162
      H1     9.04642  -16.14348  -16.09473
       H    18.91413   -7.56286  -17.23005
       O    19.75483   -7.97052  -17.09307
      H1    19.82888   -8.78796  -17.57482
       H    17.22656  -13.32627  -19.22480
       O    17.11517  -12.86836  -18.38083
      H1    16.44050  -13.37597  -17.91319
       H    18.46938   -8.73340  -11.52516
       O    18.59080   -7.81500  -11.56771
      H1    18.06837   -7.51964  -10.82528
       H    10.73597   -5.50341  -14.87600
       O     9.91557   -5.67256  -15.37500
      H1     9.20981   -5.78307  -14.69297
       H     6.08555  -10.87853  -18.57074
       O     5.39827  -11.35775  -18.13083
      H1     5.77282  -11.54207  -17.27307
       H    12.03282   -8.41280  -12.65918
       O    12.18584   -7.71841  -11.93622
      H1    13.15702   -7.38462  -12.08890
       H    13.83572  -11.10141  -13.46372
       O    12.98198  -10.60311  -13.56156
      H1    13.23230   -9.83493  -14.11365
       H    17.25373   -9.14068  -15.33570
       O    17.04018   -9.70409  -16.09655
      H1    16.27187   -9.34698  -16.58224
       H    11.69375  -16.03463  -14.15654
       O    12.62405  -15.82298  -14.25103
      H1    12.81061  -15.45013  -15.12669
       H    18.69866  -16.22165  -14.11166
       O    18.37027  -15.64489  -14.85502
      H1    19.17579  -15.17960  -15.06353
       H    18.95926  -11.01457  -11.88153
       O    18.34200  -10.68566  -11.22637
      H1    17.44522  -10.70739  -11.55713
       H    12.18307   -9.45120  -18.27475
       O    12.24669  -10.32185  -18.70312
      H1    11.50162  -10.89234  -18.38823
       H    11.34386   -3.13829  -17.28163
       O    11.91023   -3.47753  -18.00493
      H1    12.53921   -2.74098  -17.91756
       H    16.54204  -14.88643  -14.68106
       O    16.23205  -13.96301  -14.84531
      H1    15.45412  -13.99360  -15.41153
       H     8.92170  -12.96795  -12.18319
       O     8.73306  -12.74931  -13.08419
      H1     7.86446  -13.19569  -13.27753
       H    16.11242  -11.96054  -14.04191
       O    15.76473  -11.14344  -13.71156
      H1    15.95028  -10.56716  -14.47227
       H    13.60166   -4.42812  -16.47661
       O    14.52910   -4.59567  -16.39939
      H1    14.79578   -4.77025  -15.43694
       H     9.79905   -6.07577  -17.08937
       O     9.73380   -6.43126  -18.00986
      H1     9.99252   -5.61975  -18.52033

