174
frame 7 | Written by MDAnalysis XYZWriter (release 2.4.3)
       H   -15.76200   -5.62176    9.87055
       O   -16.38532   -6.38358    9.85816
      H1   -17.16793   -6.03435    9.44070
       H   -18.46263    0.96946   10.42278
       O   -19.26780    1.19582   10.82718
      H1   -18.95353    1.67519   11.59391
       H   -16.66408   -5.13327   -1.32815
       O   -16.80733   -4.26439   -1.63639
      H1   -17.10699   -4.43613   -2.62161
       H   -16.35203    1.05594    6.04378
       O   -15.97314    0.64840    5.22757
      H1   -16.43883    1.11642    4.51049
       H   -16.55093   -7.48043   -1.15554
       O   -16.02728   -6.68882   -0.87766
      H1   -15.33414   -6.75771   -1.49290
       H   -16.40778    2.59515    7.34402
       O   -17.27079    2.12986    7.27946
      H1   -17.95930    2.58809    7.76780
       H   -14.81016   -9.87983   -0.06581
       O   -14.73952   -9.88496   -0.98508
      H1   -14.82849  -10.81915   -1.10897
       H   -18.07596   -4.30256   -0.13283
       O   -18.47201   -4.56010    0.72689
      H1   -19.16444   -3.90884    0.99465
       H   -13.46385   -8.34297    8.45454
       O   -14.19296   -8.81840    8.85738
      H1   -14.83683   -8.14621    9.05143
       H   -16.98367    0.24410    2.31088
       O   -16.73090    1.04570    2.76209
      H1   -17.41893    1.69575    2.61723
       H   -16.46227   -2.67350   12.53318
       O   -16.25734   -2.18251   11.71400
      H1   -17.09536   -1.70231   11.58353
       H   -12.66705   -2.78223   -1.30659
       O   -11.83547   -2.97908   -1.85040
      H1   -11.03391   -2.93293   -1.26931
       H   -17.37974   -7.42842   11.01038
       O   -18.02248   -8.02982   11.47408
      H1   -18.82566   -8.05714   10.90634
       H   -16.18661    5.47040    4.49407
       O   -16.25377    4.53112    4.30145
      H1   -16.17736    4.08499    5.17634
       H   -11.30988   -4.78882    2.72315
       O   -11.35905   -4.25810    3.55755
      H1   -10.54170   -4.47061    4.06382
       H   -18.08014  -10.23848    9.17990
       O   -17.76577   -9.44804    8.75712
      H1   -17.28871   -9.04732    9.52255
       H   -13.20619   -1.18067    2.41971
       O   -12.86968   -1.63947    1.63273
      H1   -13.60674   -1.92560    1.04887
       H   -14.26562   -5.25920   11.47929
       O   -14.50502   -4.58530   10.85918
      H1   -13.75957   -4.56600   10.27736
       H   -18.84474   -6.97682   -1.33624
       O   -19.39924   -6.16989   -1.16838
      H1   -19.16235   -5.87984   -0.27590
       H   -10.75474   -1.02852    4.40163
       O    -9.95617   -0.52812    4.54171
      H1   -10.17210   -0.08539    5.35984
       H   -16.56757   -1.89765    1.83001
       O   -17.37066   -1.41884    1.76652
      H1   -17.61187   -1.51927    0.79901
       H   -17.20288    0.95937    8.84209
       O   -16.80255    0.67285    9.69321
      H1   -16.21772   -0.13748    9.56964
       H   -14.11421   -1.74673    4.49188
       O   -13.77549   -0.87427    4.17931
      H1   -14.45914   -0.18582    4.42865
       H   -16.82393   -9.33427   -1.33350
       O   -17.50178   -8.71411   -1.16240
      H1   -17.81418   -8.73004   -0.21070
       H   -10.58169   -3.73606    7.16159
       O   -11.03709   -3.04641    6.67925
      H1   -10.30436   -2.46187    6.39508
       H   -15.20912   -3.85757    3.62804
       O   -15.84437   -3.53761    2.93303
      H1   -16.00835   -4.31692    2.42777
       H   -18.40359  -12.26655    6.07975
       O   -17.84830  -11.62200    5.53183
      H1   -17.11721  -11.52506    6.11730
       H   -17.89037   -9.73677    4.48764
       O   -17.99213   -9.65861    3.53530
      H1   -17.18774  -10.10604    3.19297
       H   -12.97631   -3.57388    4.25798
       O   -13.78808   -3.47054    4.76637
      H1   -13.76485   -4.09975    5.48601
       H   -17.98973   -2.90240    9.96577
       O   -18.07185   -3.19778    9.08350
      H1   -18.75297   -2.58011    8.74489
       H   -12.14556   -0.56054    7.06444
       O   -12.39116    0.00108    6.30567
      H1   -12.99122   -0.41705    5.61809
       H   -18.60597   -8.86512    1.94599
       O   -18.94946   -8.36661    1.22023
      H1   -19.69281   -8.84703    0.74107
       H   -12.07816   -5.93241    5.12330
       O   -11.92488   -6.88431    5.08827
      H1   -12.52049   -7.33103    4.54235
       H   -14.88370   -1.93825    8.65617
       O   -14.81988   -1.34470    9.41052
      H1   -15.06954   -1.88313   10.12889
       H   -14.88321   -9.81011    3.02009
       O   -15.35604  -10.46030    2.46240
      H1   -14.80726  -11.23592    2.54623
       H   -20.35175   -2.07868    7.17554
       O   -19.69655   -1.37234    6.98532
      H1   -18.82466   -1.73850    6.78393
       H   -11.42769   -7.84306    8.11072
       O   -12.19896   -7.49168    7.75737
      H1   -11.96861   -7.28624    6.75383
       H   -10.38358   -3.82607    0.99891
       O   -10.41479   -2.88221    0.99440
      H1   -11.32621   -2.68892    1.23543
       H   -18.38589   -4.52168    4.37417
       O   -18.32644   -3.61421    3.98705
      H1   -17.48116   -3.69617    3.51836
       H   -16.58706   -1.12522    5.66908
       O   -17.00825   -1.84907    6.16171
      H1   -17.50793   -2.38499    5.52825
       H   -18.16741    4.64056    2.38649
       O   -18.07862    3.69535    2.57188
      H1   -17.55230    3.77774    3.34909
       H   -17.70502   -2.45586   -1.91667
       O   -18.18642   -1.68730   -1.72778
      H1   -18.26925   -1.16259   -2.49417
       H   -12.43638    0.17771    1.46474
       O   -12.56975    1.13312    1.59736
      H1   -11.71524    1.40145    2.01197
       H   -19.54735   -6.40969    9.36948
       O   -18.87138   -5.92796    8.88048
      H1   -18.79388   -5.05820    9.22925
       H   -12.74843   -8.58764    2.94548
       O   -13.57635   -8.06656    3.04117
      H1   -13.69526   -7.57898    2.21710
       H   -14.09541    0.10690   -2.02827
       O   -14.00846    0.04275   -1.10733
      H1   -14.52793    0.81556   -0.75777
       H   -19.39700   -0.70817   11.15505
       O   -18.84202   -1.46217   11.44120
      H1   -19.00677   -1.61352   12.43561
       H   -17.13190   -5.62617    1.53821
       O   -16.24523   -6.06559    1.66156
      H1   -15.95591   -6.48737    0.80787
       H   -15.36972   -9.95460    7.42469
       O   -15.29539  -10.68225    6.79342
      H1   -14.32291  -10.62886    6.53297
       H   -14.57191    1.77539    0.92812
       O   -15.15198    1.98451    0.19748
      H1   -16.05519    1.94697    0.45844
       H   -18.96446    2.11844   -0.76014
       O   -19.31496    2.24722    0.13797
      H1   -18.88261    3.08408    0.46621
       H   -15.14100   -6.62912    5.16201
       O   -15.97596   -6.77678    4.64887
      H1   -15.55068   -6.95952    3.79708
       H   -13.46509   -5.88707    7.28520
       O   -14.05311   -5.50261    6.63563
      H1   -14.63585   -4.84555    7.12001
       H   -17.78250   -6.69982    4.89450
       O   -18.71996   -6.43506    5.05670
      H1   -19.17350   -6.61604    4.27501
       H   -15.86326   -2.95808    7.15516
       O   -15.52835   -3.47900    7.86920
      H1   -16.25571   -3.74295    8.41691
       H   -12.71477   -7.09232   -0.87322
       O   -12.41943   -7.60539   -0.08099
      H1   -12.25837   -8.48683   -0.44866
       H   -15.19343   -3.01303   -1.28366
       O   -14.46771   -2.66879   -0.76442
      H1   -14.31622   -1.77810   -1.08593
       H   -11.61785   -3.36949    9.72197
       O   -12.12917   -4.08662    9.26259
      H1   -12.09608   -3.89021    8.32930

