174
frame 6 | Written by MDAnalysis XYZWriter (release 2.4.3)
       H     8.22972   -0.32514   -0.29798
       O     8.33978   -1.23838   -0.46723
      H1     9.02579   -1.67213    0.08399
       H     6.33971   -0.14162    2.44733
       O     6.56016   -0.97884    2.84241
      H1     6.40915   -1.63053    2.09704
       H     5.23953   -2.28898   -3.16075
       O     5.28825   -2.86798   -4.00389
      H1     5.37084   -3.85805   -3.82475
       H    11.47171   -2.39587   -0.33078
       O    11.55562   -2.28252   -1.31484
      H1    12.46344   -2.53691   -1.45899
       H     7.07646    4.13386    3.89587
       O     7.23217    3.16579    3.98391
      H1     6.87870    3.01303    4.87961
       H     6.83027   -2.09924    0.24279
       O     6.24829   -2.60671    0.78447
      H1     5.47776   -2.83636    0.22519
       H    13.49196   -3.24720   -2.93928
       O    13.96633   -3.34113   -2.10385
      H1    14.08442   -4.31096   -1.94061
       H     1.12054    1.38634   -0.91970
       O     1.81131    1.89637   -0.50080
      H1     2.50928    1.24378   -0.36210
       H     6.17210   -5.62653    1.96544
       O     7.00953   -5.17177    1.78016
      H1     6.81887   -4.32583    1.41918
       H    10.04401   -3.78204    5.08791
       O    10.83188   -3.27796    4.80842
      H1    11.26149   -3.64124    4.03365
       H     4.64421   -0.04365    5.26949
       O     3.93604    0.62036    5.03342
      H1     4.02526    1.44162    5.57120
       H    10.97225    3.93499   -1.94668
       O    11.47976    4.73662   -2.05610
      H1    12.41298    4.62082   -1.82405
       H     1.84556   -2.58849   -0.87230
       O     2.39317   -3.23802   -1.36965
      H1     2.34037   -3.10574   -2.35495
       H     9.73567   -1.68226    4.14900
       O     9.46375   -0.81115    3.78751
      H1     8.52096   -0.86714    3.49510
       H     6.18096    2.90194    0.43378
       O     6.56062    3.55619   -0.19195
      H1     5.79880    3.98619   -0.51441
       H     4.58915    4.46554   -3.38968
       O     4.41543    4.18258   -4.28801
      H1     3.59010    3.67595   -4.22584
       H    12.32288   -5.74136    0.37570
       O    12.91029   -4.99891    0.50929
      H1    13.72432   -5.40980    0.82032
       H     5.81202    0.16820   -1.98485
       O     5.12048   -0.36981   -2.30401
      H1     4.41474   -0.32790   -1.62785
       H    14.54371    0.20036    0.44122
       O    14.39903    0.71051   -0.37103
      H1    14.95963    1.48498   -0.30014
       H    10.30359   -1.70320    2.03949
       O    10.34613   -2.26112    1.21804
      H1    10.47886   -3.17044    1.48560
       H    10.89574    6.36703    1.62496
       O    11.02583    5.45776    1.39496
      H1    11.58325    5.46877    0.62909
       H     2.96446   -0.11515    3.48517
       O     2.80257   -0.67021    2.72229
      H1     2.32599   -1.41944    3.04845
       H     6.97210    0.59481    6.00924
       O     7.15257    1.51373    6.23699
      H1     8.05601    1.58404    6.54754
       H     8.54539    7.55074   -1.51126
       O     9.28119    7.29572   -0.96121
      H1     8.91284    6.59934   -0.36810
       H     7.30283    1.48011    1.43917
       O     6.44136    1.55626    1.86338
      H1     6.64065    2.14606    2.56278
       H    10.70590    1.61129   -1.94423
       O    10.15628    2.38935   -1.90261
      H1     9.44843    2.13255   -2.46506
       H     6.78303   -1.86873   -4.86712
       O     7.66799   -2.11157   -5.29556
      H1     8.40833   -1.77921   -4.72713
       H    12.96203    0.61276   -1.51865
       O    12.10127    0.43348   -1.90053
      H1    11.74664   -0.37180   -1.42918
       H    12.01604   -4.89091    1.88115
       O    11.16632   -4.75409    2.46906
      H1    10.69364   -5.59489    2.24595
       H    12.25906    2.04458    1.05674
       O    11.58541    2.31309    1.67390
      H1    11.75040    3.24680    1.82662
       H     4.19484    2.01071   -4.13428
       O     4.39932    1.12224   -4.51455
      H1     4.61592    0.62274   -3.70560
       H     7.50123   -5.36405    3.36988
       O     7.86166   -5.49704    4.31843
      H1     8.47487   -6.25160    4.25399
       H    13.28432   -1.97729    3.55698
       O    12.74837   -1.56074    2.89137
      H1    12.42113   -0.83130    3.41261
       H    13.55179    1.28786   -5.11449
       O    12.76054    0.76302   -4.83391
      H1    12.61843    0.98839   -3.94438
       H     7.41110    1.57359   -2.77333
       O     7.18533    1.53213   -1.81594
      H1     6.92325    2.46585   -1.54895
       H     4.79577   -5.95312   -4.31171
       O     5.51363   -5.46266   -3.85453
      H1     6.26836   -5.39734   -4.40933
       H    10.17201   -5.02529   -2.24150
       O    10.38157   -4.24715   -2.67044
      H1    10.70804   -3.55566   -2.11728
       H     9.81748   -1.23865    7.21530
       O     9.18206   -0.53675    6.89254
      H1     9.11500   -0.53861    5.91912
       H    15.31891   -1.53019    1.59390
       O    14.95816   -0.66826    1.89513
      H1    14.19621   -0.91538    2.38710
       H     6.80909   -2.18870    5.73232
       O     6.31217   -1.42222    5.40676
      H1     6.38039   -1.39155    4.41904
       H     8.32284   -0.22847   -7.64555
       O     8.28863   -1.19760   -7.77854
      H1     7.96702   -1.55086   -6.92102
       H    11.75712    1.90168   -5.79980
       O    11.37010    2.37188   -6.58301
      H1    11.81649    3.22739   -6.75200
       H    12.67153   -0.97557   -4.59310
       O    12.84044   -1.92192   -4.53247
      H1    12.18692   -2.42835   -5.06399
       H     4.59379   -4.02426   -6.67366
       O     4.92499   -3.13577   -6.85330
      H1     5.33032   -2.87737   -6.00793
       H     4.48232    5.69997   -1.28629
       O     5.26807    5.46035   -1.87127
      H1     5.77855    6.25542   -1.94146
       H     3.53821   -4.13070   -0.26847
       O     3.86269   -4.56525    0.56585
      H1     3.92413   -5.48828    0.35224
       H     9.99974   -6.91976    1.16426
       O     9.28195   -6.83801    1.79336
      H1     8.58370   -6.29602    1.35207
       H     8.38486   -3.87994    6.83485
       O     8.18437   -3.45597    6.02173
      H1     7.91292   -4.22277    5.44606
       H    10.79109    0.25210    3.92049
       O    11.58944    0.77087    3.89020
      H1    11.61461    1.21247    3.02708
       H    10.30775   -0.62068   -3.66039
       O     9.37329   -0.62885   -3.40577
      H1     9.37397   -1.00716   -2.54459
       H    11.56438   -4.53542   -4.02815
       O    12.00660   -4.72500   -4.85028
      H1    11.58835   -5.47750   -5.20803
       H     7.88239    2.07177   -5.24337
       O     7.81262    2.51448   -4.39449
      H1     8.40210    3.22318   -4.39464
       H     4.80497    0.69920    0.70714
       O     3.98582    0.28311    0.45886
      H1     3.62850   -0.10722    1.28325
       H     7.42622   -5.14879   -6.52152
       O     7.65196   -5.24610   -5.61758
      H1     8.05563   -4.40356   -5.38809
       H     8.10505    4.81518    0.27167
       O     8.36898    5.56430    0.82131
      H1     9.22316    5.36252    1.21838
       H    10.46156    2.05043    4.36319
       O    10.00281    2.90021    4.54024
      H1     9.15132    2.81113    4.14952
       H     8.99925    5.59995   -3.17370
       O     8.80775    5.93725   -4.07337
      H1     7.92877    6.35181   -4.02219
       H     8.94664    1.94569   -0.25623
       O     8.86910    1.71274    0.67400
      H1     9.69727    2.00764    0.99605

