174
frame 7 | Written by MDAnalysis XYZWriter (release 2.4.3)
       H     8.34323   18.04023   13.31912
       O     8.70033   17.22456   12.97137
      H1     8.32352   16.60934   13.61077
       H    14.27728   19.59472   19.23905
       O    14.87592   19.03183   19.76043
      H1    15.64365   19.60241   19.79761
       H    13.69382   19.35554   11.04823
       O    14.10064   19.23338   11.89522
      H1    14.57435   18.36044   11.76736
       H    10.24257    9.55947   17.77318
       O     9.80902    8.67335   17.64562
      H1     9.13611    8.69755   18.29828
       H    11.95992   18.94191   15.31099
       O    12.43116   18.29821   14.76375
      H1    13.22270   17.97404   15.21627
       H     6.99368   18.39840   15.51826
       O     6.65061   18.95725   14.78859
      H1     5.70279   18.96759   14.95543
       H    10.32689   14.01182   17.34789
       O    10.03457   14.82182   17.84363
      H1    10.10912   14.60207   18.75151
       H    16.95870   19.47149   12.92694
       O    17.28562   18.97700   13.67902
      H1    17.94945   19.46418   14.20854
       H    12.79166   14.05068   17.05980
       O    13.31418   14.49614   17.76187
      H1    13.72544   13.79888   18.27744
       H    17.61523   11.64622   12.60702
       O    17.86973   11.70942   13.50102
      H1    18.64591   11.18827   13.54618
       H     7.56347   12.50918   18.02002
       O     7.59889   11.49829   18.06756
      H1     8.38056   11.35360   18.59076
       H    10.29582    9.76151   10.83895
       O    10.90831   10.34940   11.23960
      H1    11.46092   10.76283   10.55372
       H    13.11420   11.88921    9.06052
       O    12.14950   11.93618    9.28444
      H1    11.94169   12.82004    9.66596
       H    14.35894   17.18277   19.78586
       O    14.05370   16.24099   19.91088
      H1    13.51464   15.88320   19.24218
       H    14.07914   16.34307    8.10156
       O    14.14705   16.08179    9.03800
      H1    15.09327   15.82235    9.21560
       H    15.32674   10.32534   10.26011
       O    15.29749    9.95076   11.20095
      H1    15.18668    9.02614   11.20636
       H     6.76441   16.74554   12.51926
       O     5.87480   16.42832   12.45991
      H1     5.83092   16.09267   11.56532
       H     6.57469   15.01302   14.03015
       O     7.52592   15.19342   14.37242
      H1     7.77440   14.30254   14.64399
       H    13.95037   10.14452   12.36478
       O    13.10101   10.42793   12.81598
      H1    12.35900   10.09360   12.25494
       H     9.84394   17.02876   11.57668
       O    10.70657   16.88998   11.08773
      H1    11.44046   16.85592   11.69795
       H    18.84294   18.99838   18.64318
       O    18.96582   18.05497   18.41883
      H1    18.24309   17.72359   17.91012
       H    11.08951   17.55421    9.45713
       O    11.17654   17.89134    8.53112
      H1    10.24024   17.88796    8.20442
       H    16.97738   14.38517    9.31993
       O    17.03282   15.37066    9.44842
      H1    17.08363   15.65102   10.40401
       H    19.87996    9.10153   17.65198
       O    19.40029    8.28753   17.63978
      H1    18.50493    8.48326   18.02503
       H    11.13647   13.91804   15.12461
       O    11.04535   13.21441   15.79284
      H1    11.79241   12.61285   15.60833
       H     9.22230    8.54868   16.08656
       O     8.86991    8.30281   15.21720
      H1     8.21556    7.60525   15.43190
       H    15.78867   14.03432   17.83008
       O    16.11271   14.89268   18.26462
      H1    15.31946   15.42559   18.44360
       H    12.58034   18.70021   17.99508
       O    12.24065   17.95512   18.43709
      H1    11.28714   17.87440   18.19154
       H     9.25451   12.55131   15.30367
       O     8.38447   12.66113   14.81490
      H1     7.61420   12.38830   15.29667
       H    16.89546   17.97250   15.33183
       O    16.90694   18.08183   16.30090
      H1    16.03523   17.70979   16.60110
       H    17.55924   12.02846    9.54618
       O    17.18445   12.73448    9.01980
      H1    17.34872   12.39029    8.10853
       H    19.20679   14.55934   13.98963
       O    18.26328   14.30699   14.07670
      H1    18.16393   13.38722   14.06331
       H    14.07379   11.83132   15.23622
       O    13.17506   11.55286   15.51541
      H1    12.74224   11.24368   14.69771
       H    12.51068   19.17980    9.22899
       O    13.19275   19.84932    9.25902
      H1    13.87984   19.46017    8.64098
       H     7.91917   14.66063   17.47916
       O     7.13591   14.20002   17.82654
      H1     7.11426   14.62823   18.69071
       H    15.63861   11.86915    8.84664
       O    14.99862   11.19645    8.78551
      H1    15.01106   11.03070    7.87483
       H    18.46688   15.41345   16.28848
       O    18.48047   15.22328   17.21793
      H1    17.60626   15.22856   17.65070
       H     9.05453   12.46688   12.92541
       O     9.37009   12.57596   12.01803
      H1     9.87004   11.82993   11.84050
       H    15.38439   15.16601   13.32697
       O    14.86719   14.91922   14.13119
      H1    14.39400   14.12838   13.75971
       H    17.27065   12.32665   17.98997
       O    16.46355   11.82558   17.82983
      H1    16.31911   11.99880   16.87490
       H     6.63176   16.22695   16.51516
       O     6.91025   17.11910   16.86352
      H1     6.53812   17.26306   17.75034
       H    18.81738   13.79710   17.95278
       O    19.01265   12.95150   18.49953
      H1    19.15720   13.20048   19.40899
       H    10.01959   16.48062   17.62816
       O     9.73550   17.39075   17.57306
      H1     8.83764   17.33279   17.37821
       H    11.11419   15.13979   10.59621
       O    11.20577   14.17275   10.70720
      H1    10.41895   13.92478   11.28371
       H    18.78812   10.40404   10.42469
       O    18.06244   10.95573   10.84093
      H1    17.38651   10.31235   11.03563
       H    18.17797   16.13170    8.28787
       O    18.61226   16.79998    7.66874
      H1    18.14985   17.59861    7.74799
       H    13.22285   15.54819   12.38181
       O    13.37860   16.28410   11.82792
      H1    13.72633   15.92930   11.01170
       H    13.22213    7.81378   19.82338
       O    13.40653    7.67983   18.84458
      H1    12.67956    7.12131   18.46126
       H    14.40465   16.21422   16.03912
       O    14.40200   17.09770   16.47730
      H1    13.83608   17.06277   17.26664
       H     6.67581    8.75518   18.26476
       O     6.09867    9.26669   17.68742
      H1     6.57149   10.11325   17.62393
       H    12.46062    7.35014   14.20412
       O    13.38218    7.33146   13.95452
      H1    13.57702    8.05864   13.37372
       H    16.60522   11.51225   14.91489
       O    15.87023   11.99052   15.27158
      H1    16.01089   12.91205   15.03679
       H    12.43837   13.54974   11.94270
       O    13.15951   13.16279   12.53336
      H1    13.16190   12.18951   12.41969
       H    10.38476   15.93205   13.64952
       O    11.23357   15.64931   14.06834
      H1    11.51416   16.44796   14.61020
       H    17.34648   17.05009   12.87377
       O    17.10928   16.20616   12.59342
      H1    17.57001   15.49247   13.12523
       H    14.64728    7.78614   15.03393
       O    15.43875    8.24319   15.25766
      H1    15.37983    8.55267   16.17319
       H    16.74817   10.16720   18.36627
       O    17.20179    9.42365   18.79669
      H1    16.59074    8.72691   18.92782
       H    12.49628   10.80933   18.52117
       O    12.04930   10.09931   18.05045
      H1    12.53028    9.28051   18.28185

