174
frame 7 | Written by MDAnalysis XYZWriter (release 2.4.3)
       H   -13.92664   13.67641    3.06268
       O   -14.46457   14.24994    3.57160
      H1   -14.14838   15.14715    3.39200
       H   -11.27210   10.03551    3.59003
       O   -12.20783   10.38415    3.64574
      H1   -12.31151   10.99331    2.83990
       H   -16.33064   13.84885    2.58087
       O   -17.00826   13.76563    1.89477
      H1   -16.53240   14.11516    1.18278
       H   -12.77398   17.99192   -0.58395
       O   -13.12718   18.65447    0.00824
      H1   -12.76738   19.45103   -0.44386
       H   -11.39307   16.31427   -2.46512
       O   -11.77844   16.39791   -1.56582
      H1   -11.15829   16.11641   -0.88201
       H    -9.41667   19.97054    1.32447
       O    -9.54881   19.06378    1.06587
      H1   -10.47005   18.79565    1.31498
       H   -18.78250   11.35883    5.92395
       O   -19.08098   10.81896    6.69331
      H1   -19.23083   11.54843    7.34776
       H   -13.45439   10.02129    6.84627
       O   -12.86167    9.97203    7.60134
      H1   -12.95129    9.06156    7.87878
       H    -8.47920   16.37474    8.71289
       O    -8.90555   16.19124    7.82427
      H1    -8.74952   16.87511    7.14513
       H   -17.72174   18.69165    5.99499
       O   -17.94851   19.62481    6.06397
      H1   -17.65537   19.89722    6.90948
       H   -20.01765   17.30557   -3.32795
       O   -19.29373   16.64287   -3.31599
      H1   -18.93322   16.72857   -2.42604
       H   -18.25559   14.93929    2.50090
       O   -18.82778   15.59496    2.87846
      H1   -19.49884   15.18503    3.47679
       H   -15.99030   10.14835    7.33990
       O   -16.83133    9.73226    7.43989
      H1   -17.65448   10.20545    7.15497
       H   -13.01937   15.47161   -2.23979
       O   -13.79292   14.99427   -2.62643
      H1   -14.46090   15.72124   -2.62434
       H   -12.99775   16.22157    9.86176
       O   -13.64845   16.93849    9.86524
      H1   -13.78890   17.11268   10.83844
       H   -12.60318   18.64327    3.95022
       O   -13.12705   19.13078    4.59261
      H1   -13.73551   18.37238    4.81590
       H   -17.46595   16.93360    9.02316
       O   -17.98948   17.65147    9.33482
      H1   -18.76415   17.57691    8.81859
       H   -18.81458   18.34614    1.96354
       O   -18.13821   18.57400    2.58702
      H1   -18.54702   19.33060    3.11039
       H    -9.41936   17.09544    4.82020
       O    -8.79572   17.57435    5.38162
      H1    -7.94086   17.30853    5.05817
       H   -14.12846   14.79294   -4.39604
       O   -14.13243   14.84404   -5.38083
      H1   -13.19794   14.62450   -5.63733
       H   -12.40294   18.18529    1.56290
       O   -11.79114   18.24536    2.33393
      H1   -11.42394   17.38648    2.50914
       H   -10.38542   15.13613   -4.07842
       O   -10.59022   16.05711   -4.15758
      H1    -9.78342   16.47824   -3.93010
       H   -15.16484   17.74010   -3.76840
       O   -15.62534   17.26102   -3.05893
      H1   -16.48094   17.00070   -3.37003
       H   -16.27510   16.69449    5.17010
       O   -17.17340   16.98926    5.00651
      H1   -17.28957   16.94713    4.03004
       H    -9.77513   19.61053   -0.91224
       O    -9.51511   19.87476   -1.75775
      H1   -10.01020   19.43777   -2.45515
       H   -14.57899   15.68456   -0.26893
       O   -15.37977   15.79477    0.29858
      H1   -16.10916   16.03431   -0.30207
       H    -8.37743   12.28118    3.34731
       O    -8.02763   11.46788    3.64175
      H1    -8.04300   10.97257    2.81550
       H   -16.36902   18.48317    0.85575
       O   -16.08546   18.97156    0.09182
      H1   -15.16747   18.78190   -0.01904
       H   -12.24557   12.61052    1.05949
       O   -12.95439   12.41618    1.73030
      H1   -13.49616   11.71390    1.33275
       H   -15.08603   12.96253   -2.20101
       O   -14.44392   12.24388   -2.17026
      H1   -14.80337   11.59094   -1.54499
       H   -13.45270   17.27021    7.17446
       O   -14.33278   17.17427    6.72339
      H1   -14.92350   16.84599    7.45146
       H   -19.83637    9.54536    1.71091
       O   -19.64931    9.93487    2.61331
      H1   -19.43122    9.22253    3.21393
       H   -10.11431   15.51832    3.69382
       O   -10.70049   16.20760    3.99020
      H1   -11.38924   15.78079    4.52545
       H   -11.87413   11.42739   -3.31286
       O   -12.35860   12.15673   -3.75777
      H1   -13.01603   12.42780   -3.14040
       H   -14.37274    9.51500    1.36629
       O   -14.37447   10.31905    0.85425
      H1   -15.29827   10.45447    0.55414
       H   -11.62827   14.17625    9.41457
       O   -11.57302   15.12537    9.24602
      H1   -11.18892   15.29143    8.42561
       H   -16.03882   17.95463    2.60670
       O   -15.29024   17.36625    2.72697
      H1   -15.37428   16.62624    2.12870
       H   -17.99418   12.55706    3.82064
       O   -18.84628   12.27171    4.15533
      H1   -19.18736   11.62429    3.53781
       H    -9.85163   13.18812    3.72178
       O    -9.38315   13.85341    3.22324
      H1    -9.96082   14.00895    2.50924
       H   -17.87111   14.52153   -1.49711
       O   -17.17848   13.88213   -1.77241
      H1   -17.62762   13.37748   -2.45105
       H   -11.40614   11.76768    4.42927
       O   -11.04591   12.50844    4.98538
      H1   -10.42067   12.11054    5.65542
       H   -19.11020   13.17985    9.39733
       O   -18.97474   12.94555    8.44629
      H1   -18.97514   13.75880    7.96557
       H   -12.47085   18.27600    8.95061
       O   -11.74274   18.37102    8.32320
      H1   -11.14464   17.69689    8.57040
       H   -15.32525   18.72504   -5.66371
       O   -14.53177   18.63729   -5.09253
      H1   -13.97885   18.10161   -5.61632
       H   -15.82046   20.06828    9.81442
       O   -15.02010   19.77850   10.23457
      H1   -14.93093   18.83646   10.16242
       H   -11.10476   13.60787   -0.86287
       O   -11.63473   12.81750   -0.74536
      H1   -12.50175   13.11235   -1.02710
       H   -14.33699   13.32424    5.16037
       O   -14.50399   12.97143    6.01656
      H1   -14.69438   12.04092    5.97127
       H    -7.50394   16.63237    0.56208
       O    -7.95404   16.96336    1.39326
      H1    -8.40139   17.83021    1.21715
       H   -14.78007    8.94418    5.03024
       O   -14.37134    9.78472    5.34430
      H1   -13.76589    9.90623    4.61703
       H   -16.09622   14.87130    8.77713
       O   -15.98409   15.82401    8.85738
      H1   -15.18350   16.03595    9.40304
       H   -12.52549   14.22140    5.95143
       O   -12.51632   15.22825    5.87673
      H1   -13.28116   15.64815    6.22756
       H   -18.05412   15.78228    5.93075
       O   -18.63809   15.23376    6.47357
      H1   -19.34620   15.84794    6.72548
       H   -17.84022   17.32203   11.04105
       O   -17.66270   17.10841   11.98156
      H1   -17.21702   17.83595   12.43560
       H   -17.42119   17.72413   -0.61337
       O   -17.92167   16.92982   -0.75079
      H1   -18.65743   16.99557   -0.12421
       H   -17.27651   10.24749   -0.67472
       O   -16.91880   10.69880    0.05551
      H1   -17.63305   11.29626    0.40797
       H    -9.09258   14.76157   -0.14832
       O    -9.79843   15.30950    0.25818
      H1    -9.25180   15.86845    0.77273
       H   -14.16454   12.35305    8.86980
       O   -13.47719   11.85698    9.32740
      H1   -13.28980   11.11070    8.73101
       H   -16.72629   12.65281    8.15898
       O   -15.87232   13.10636    8.31502
      H1   -15.44882   13.12266    7.43506

