174
frame 11 | Written by MDAnalysis XYZWriter (release 2.4.3)
       H     8.31442    5.45583  -13.97866
       O     7.74558    5.81166  -13.24527
      H1     8.21361    6.64721  -13.20613
       H     4.27192    6.68483  -11.71766
       O     4.20622    5.75143  -11.63535
      H1     4.43694    5.49697  -10.69776
       H     0.56654    5.11028   -7.96600
       O     1.43025    5.05091   -8.32666
      H1     1.18856    5.19842   -9.23348
       H     7.91904    1.38251  -16.99761
       O     7.06597    1.24888  -17.42375
      H1     7.23235    0.48238  -17.91800
       H    -0.29430    7.08255  -13.91238
       O    -0.61114    7.78785  -13.33201
      H1    -0.47119    7.48082  -12.40026
       H    -3.18529    7.93017  -12.69864
       O    -3.71057    7.26012  -12.27276
      H1    -4.43002    6.97101  -12.85396
       H    -1.95790    5.57425  -15.63166
       O    -2.52165    6.38239  -15.78221
      H1    -2.55177    6.48493  -16.79052
       H     0.36114    9.09670  -12.93300
       O     1.07723    9.73106  -12.63077
      H1     0.66271   10.62634  -12.56748
       H     0.78684    2.86725  -13.12992
       O     0.31603    3.66580  -13.06614
      H1    -0.56642    3.45658  -13.37047
       H    -1.03261    9.39905  -16.68997
       O    -0.28490    9.76771  -17.26543
      H1    -0.68136   10.08076  -18.00857
       H    -1.78401   -0.35489  -15.33933
       O    -2.28526   -1.06708  -14.80789
      H1    -2.49582   -0.65883  -13.97562
       H    -0.18031    5.15338  -17.20272
       O     0.64341    5.33848  -17.72006
      H1     0.85857    6.26646  -17.34270
       H     5.04540    4.45491   -8.57329
       O     4.37696    5.11772   -8.86054
      H1     3.60231    4.80088   -8.33830
       H     6.31130    8.85648  -16.39894
       O     6.51190    8.25895  -15.64360
      H1     6.21177    8.74449  -14.84411
       H     2.01227    9.32121  -18.91871
       O     1.57111    9.07172  -19.70684
      H1     2.09113    9.50608  -20.43081
       H     4.77951   -0.13271   -9.15813
       O     5.44775    0.14037   -9.75320
      H1     5.03967    0.81428  -10.39302
       H     4.82886    2.78458  -14.27699
       O     4.31024    1.95216  -14.24732
      H1     4.90021    1.20388  -14.42500
       H     8.36073    4.87762  -15.96929
       O     9.18107    5.25139  -15.68138
      H1     9.14782    6.23037  -15.64861
       H     2.29414    7.01899   -8.36574
       O     2.20711    7.88880   -8.74964
      H1     1.37591    8.09711   -8.24864
       H     3.01665    8.78242  -11.04973
       O     3.80903    8.67460  -11.50484
      H1     3.55235    8.87285  -12.40325
       H     2.48863   -0.59531  -13.60242
       O     2.15725   -0.46052  -14.48438
      H1     2.56058    0.33063  -14.81042
       H     4.48693    5.21739  -14.33746
       O     5.33578    4.70321  -14.42445
      H1     5.97508    5.15513  -13.84469
       H    -1.64428    9.41521  -10.98330
       O    -2.20718   10.20806  -11.19798
      H1    -2.48300   10.55494  -10.31226
       H     3.34424    6.21677  -15.41218
       O     2.82280    5.93786  -14.60556
      H1     2.37236    5.09061  -14.86684
       H     2.12761    5.30353  -11.49618
       O     1.31923    5.31924  -10.98772
      H1     0.63289    4.84988  -11.46093
       H     0.68337    8.33560  -16.47946
       O     1.14141    7.61571  -16.03598
      H1     1.89969    7.82910  -15.45225
       H     9.10794    2.94713  -10.66712
       O     9.13656    3.54880  -11.44492
      H1     8.43842    4.15381  -11.38178
       H     0.80702    1.49838   -9.67247
       O     1.56456    1.10446  -10.13793
      H1     2.27290    1.76777  -10.22016
       H     6.64786   -0.74675  -15.04662
       O     5.96391   -0.21009  -15.46895
      H1     6.32067    0.54334  -15.95480
       H     3.17745    9.75233  -16.64376
       O     3.32964   10.20361  -17.45223
      H1     4.24512    9.90833  -17.63707
       H    -0.65520    6.94902  -10.37378
       O    -0.58782    7.95206  -10.30013
      H1     0.31588    8.17248  -10.60783
       H     4.40478    2.05435  -12.34841
       O     4.18257    2.13627  -11.39904
      H1     4.11898    3.04924  -11.20430
       H    -2.04949    4.52731  -10.71465
       O    -1.77694    5.28574  -10.19045
      H1    -2.54883    5.69710   -9.93654
       H     6.24500    4.77499  -15.86571
       O     6.72617    4.34264  -16.57426
      H1     6.43556    3.43014  -16.48821
       H     0.14285    0.19991  -18.67880
       O     0.98410    0.26599  -18.22899
      H1     0.91619   -0.22604  -17.44136
       H    -1.81296    1.64553  -12.21782
       O    -1.57302    1.10760  -13.00678
      H1    -0.97803    0.42498  -12.75937
       H    -1.80482    3.19703  -16.16073
       O    -1.35334    4.02305  -15.92569
      H1    -0.46924    3.71211  -15.69842
       H     0.73692   -0.33999  -11.28856
       O     0.26705   -0.74625  -12.06130
      H1    -0.17532   -1.61948  -11.74870
       H     8.09794    8.07163  -15.86820
       O     9.07596    8.03992  -15.96873
      H1     9.31480    8.70163  -16.63251
       H    -3.88940    5.42134  -15.46287
       O    -4.74880    4.96004  -15.23042
      H1    -4.80028    4.07584  -15.58686
       H     8.37880    0.90778  -12.87547
       O     7.79550    1.59787  -13.16057
      H1     8.22692    2.44553  -12.85510
       H    -1.96509    2.55119  -10.36777
       O    -2.41732    2.99053  -11.08713
      H1    -3.27349    2.54683  -11.10923
       H     0.29414    1.45290  -15.27708
       O    -0.68471    1.27394  -15.40207
      H1    -1.07269    1.22650  -14.50173
       H    -2.43157    1.37706  -16.91432
       O    -2.70764    1.76200  -17.75030
      H1    -3.59857    2.11208  -17.64540
       H     1.26714   -1.24356  -15.68111
       O     0.97011   -1.96405  -16.24394
      H1     0.09450   -2.26266  -15.95126
       H     3.90022    4.41097  -17.75998
       O     3.09481    3.93074  -18.00417
      H1     2.34464    4.58808  -17.88587
       H     7.10346    5.48117  -19.15456
       O     6.37923    5.82364  -18.60212
      H1     6.62919    5.33828  -17.81269
       H    -2.07112    6.38792  -19.47775
       O    -1.91762    6.56924  -18.54494
      H1    -0.97819    6.49852  -18.52032
       H     1.70494   12.14335  -16.26427
       O     1.10305   12.18791  -15.52001
      H1     0.77299   11.31460  -15.46904
       H     3.55350   12.16698  -14.85544
       O     4.36185   11.64621  -14.55021
      H1     4.53903   11.95218  -13.67258
       H     6.56357    8.71563  -18.32101
       O     5.84195    9.32602  -18.06791
      H1     6.01289   10.12207  -18.63049
       H     5.35691    9.70360  -11.46909
       O     5.91975   10.43762  -11.69562
      H1     5.43269   11.25025  -11.38658
       H     2.73788    2.31201  -15.35304
       O     1.80672    2.19280  -15.61049
      H1     1.78434    2.23969  -16.55862
       H    -2.40647    8.50471  -15.45185
       O    -2.62690    9.47815  -15.40742
      H1    -2.58399    9.66747  -14.44954
       H     7.95171    7.06636  -18.71214
       O     8.25662    7.99862  -18.79323
      H1     9.23359    7.82738  -18.63307
       H     3.34732   10.06586  -14.63212
       O     2.81806    9.28225  -14.57126
      H1     2.15756    9.39222  -13.84380
       H     4.74178    7.13832   -8.60176
       O     4.94825    7.91105   -8.08420
      H1     4.12881    8.45223   -8.12303
       H     4.13920    7.08471  -17.96488
       O     3.98817    6.94771  -17.01211
      H1     4.89801    6.89286  -16.79743

