174
frame 0 | Written by MDAnalysis XYZWriter (release 2.4.3)
       H   -16.72676   12.44075   17.73375
       O   -16.57348   11.49983   17.57084
      H1   -16.17452   11.15121   18.39067
       H   -15.62524    7.98817   11.31917
       O   -15.55898    7.56512   12.15701
      H1   -16.34479    7.13366   12.33320
       H   -17.31041    5.75332   19.27739
       O   -17.87124    6.25192   19.84765
      H1   -17.62776    7.21563   19.72425
       H    -9.98113    5.34535   12.97821
       O   -10.62471    5.48232   13.64095
      H1   -10.50028    6.44194   13.79760
       H    -6.70709   11.79192   14.44923
       O    -7.02731   12.02691   15.32440
      H1    -7.92115   11.64999   15.23399
       H   -11.76469    8.33872    9.81755
       O   -11.22224    8.74535   10.48871
      H1   -11.70375    8.47562   11.32651
       H   -11.37075    7.36927   18.62871
       O   -10.78641    7.90552   19.17563
      H1   -10.25976    7.32225   19.73503
       H   -12.50486    3.87841   13.84016
       O   -12.71440    3.02889   14.15176
      H1   -12.09462    2.80748   14.79129
       H   -12.02624    8.51108   13.51351
       O   -12.54992    8.55008   12.71025
      H1   -12.92139    7.65221   12.54179
       H   -13.09998    2.87469   18.04704
       O   -12.38588    2.51419   18.59167
      H1   -12.13958    3.15131   19.26480
       H   -14.17554   -0.43928   15.66286
       O   -13.24568   -0.40663   15.89704
      H1   -13.01330   -1.03065   15.13607
       H   -14.63057   11.53299   16.64535
       O   -13.76220   11.31063   16.25252
      H1   -13.87227   11.24914   15.27044
       H   -13.87888    5.24303   11.37488
       O   -13.98749    4.72683   10.56929
      H1   -14.15779    3.87802   10.94098
       H   -13.51750    5.75139   13.94538
       O   -13.08107    5.73293   13.04106
      H1   -12.11006    5.61495   13.26169
       H   -17.68793    4.98537   15.20450
       O   -16.90388    4.59271   14.74031
      H1   -16.94725    3.74078   15.14838
       H   -12.15996    4.38331    7.89592
       O   -11.89091    4.93731    8.60470
      H1   -12.52580    4.86308    9.32366
       H   -15.17255    2.51265   16.53995
       O   -14.39786    3.05678   16.82475
      H1   -13.86045    3.20759   16.07651
       H   -18.91267    2.58080   13.17800
       O   -18.37862    3.22041   12.67449
      H1   -17.86132    3.67537   13.36530
       H   -15.93477    9.04206   13.41818
       O   -15.90654    9.51204   14.27656
      H1   -16.52732   10.23888   14.29391
       H   -10.70498   11.46904   17.28982
       O   -11.05020   12.29049   16.84688
      H1   -11.95004   12.01478   16.55934
       H   -15.47468    0.78767   12.29395
       O   -16.06274    0.04540   12.59154
      H1   -16.92169    0.28954   12.33218
       H    -7.82076    1.38675   13.84899
       O    -8.49667    2.10219   14.02337
      H1    -8.53711    2.55393   13.14180
       H   -13.70755    9.58896   16.25365
       O   -13.90358    8.70057   15.99694
      H1   -14.71243    8.81711   15.50946
       H    -7.80197    3.10389   15.57300
       O    -7.30477    3.73973   16.03675
      H1    -6.96719    4.34130   15.44738
       H   -17.37439    8.47011   14.99486
       O   -18.19485    8.08794   15.37885
      H1   -18.37020    8.83729   16.03765
       H    -7.90548    4.94484   10.79613
       O    -8.19783    4.38365   11.49136
      H1    -7.82150    4.81132   12.29951
       H   -15.99732   -0.13851   14.31456
       O   -15.92070   -0.24840   15.25034
      H1   -16.19747   -1.20182   15.34466
       H   -16.41544   -1.19840   18.63395
       O   -17.24913   -0.97053   19.06497
      H1   -17.70063   -1.77923   19.31285
       H   -16.43976    3.06954   18.97664
       O   -15.98341    2.50328   19.65825
      H1   -15.46063    1.90208   19.11846
       H   -12.95148    5.77143   16.95808
       O   -12.15195    6.21966   17.29731
      H1   -11.35171    5.71190   17.00454
       H   -11.48838   13.36638   18.15797
       O   -11.76942   13.79872   18.98397
      H1   -11.08500   14.44925   19.20539
       H   -14.46260   10.26997   13.70154
       O   -13.77356   10.83170   13.33765
      H1   -13.07025   10.19522   13.08272
       H    -8.79184    8.70441   16.91359
       O    -8.44548    7.88191   16.52103
      H1    -9.17531    7.28877   16.30788
       H    -6.90413    7.96685   15.61735
       O    -6.23674    8.07448   14.94940
      H1    -5.46857    7.57372   15.32338
       H    -9.17310   10.67818   13.84449
       O    -9.29737   10.28388   14.72869
      H1    -8.60092    9.63248   14.88707
       H   -13.88048    2.34637   12.84144
       O   -14.41072    2.26966   12.07417
      H1   -13.97957    1.81375   11.31584
       H    -7.30032    8.09653   18.61452
       O    -6.83264    7.55719   19.25379
      H1    -7.08922    6.64834   19.09105
       H   -15.26793    4.84289   17.76464
       O   -15.42617    5.31725   18.51204
      H1   -14.79441    4.96566   19.13401
       H    -6.10350    2.31312   16.47186
       O    -5.21344    1.93578   16.64249
      H1    -4.67043    2.54297   17.22374
       H   -12.81460   -0.69389   18.52936
       O   -12.48956   -1.62449   18.48848
      H1   -11.80121   -1.66170   17.81572
       H    -6.53511    6.29528   14.12172
       O    -6.59066    5.44979   13.71902
      H1    -5.70422    5.02932   13.81094
       H   -18.78291    6.23694   11.51055
       O   -18.37574    6.96925   11.91111
      H1   -18.73801    7.13796   12.75468
       H   -18.17033   10.77102   17.18931
       O   -19.12776   10.55590   16.97835
      H1   -19.47586   11.26841   17.55211
       H   -11.28756    7.97334   15.69588
       O   -10.85795    8.21343   14.87867
      H1   -10.37038    9.08845   15.04257
       H    -9.75634   -0.95996   15.25698
       O    -9.44559   -0.47638   14.42237
      H1    -9.61472    0.45159   14.42391
       H    -6.87626    2.08945   19.48131
       O    -7.83184    2.32739   19.50822
      H1    -8.15652    2.06890   18.62668
       H    -9.50146    0.98943   16.77217
       O    -8.56147    1.06688   17.01134
      H1    -8.26241    0.18063   17.29244
       H   -15.02673    8.79122   17.85093
       O   -15.62690    8.17194   18.31735
      H1   -15.16455    7.34361   18.39458
       H   -10.70158    1.07129   10.49364
       O   -10.48021    1.04602   11.47047
      H1   -11.12467    1.66078   11.88253
       H   -14.15014    6.85961   15.51560
       O   -14.13827    5.89672   15.49205
      H1   -15.01208    5.65234   15.80839
       H    -8.76112    4.68059   16.44780
       O    -9.59947    5.20127   16.38916
      H1    -9.96762    4.96799   15.50055
       H   -18.78038    1.97243   18.30566
       O   -18.92304    1.12860   17.92754
      H1   -18.18007    0.62832   18.21573
       H    -6.99598    4.14843   19.49384
       O    -6.45399    4.68251   18.95055
      H1    -6.76643    4.32548   18.07812
       H   -10.39956   10.50613   11.56981
       O   -10.10482   11.08542   12.27684
      H1   -10.86202   11.78068   12.39199
       H   -18.24728    1.66295   16.43392
       O   -17.74897    1.91429   15.57722
      H1   -17.05469    1.19570   15.45428
       H    -9.64567    9.05633   18.75406
       O    -9.24652    9.81737   18.26138
      H1    -8.59710   10.15981   18.91161
       H   -19.58372    3.88353   18.85781
       O   -18.69703    3.76642   18.46313
      H1   -18.83954    4.18222   17.58580
       H   -11.48048    1.72337   17.18681
       O   -11.15655    1.22315   16.41243
      H1   -11.77269    0.50252   16.37337

