174
frame 4 | Written by MDAnalysis XYZWriter (release 2.4.3)
       H    -4.51677    2.60821   -2.29570
       O    -4.14985    2.02898   -2.97349
      H1    -4.79466    2.15652   -3.65576
       H    -5.37103   -2.91653  -11.18423
       O    -4.68425   -3.62565  -10.98737
      H1    -3.84976   -3.18710  -10.89303
       H    -6.62726    5.15250   -7.16687
       O    -6.52208    4.27351   -6.74572
      H1    -7.08877    4.25891   -6.01578
       H   -13.68319    1.19450   -7.24831
       O   -12.95771    1.01958   -6.62752
      H1   -12.15934    1.05727   -7.21816
       H   -10.24407   -1.12161  -11.09867
       O   -10.46435   -0.58923  -11.87234
      H1   -11.11645   -1.10197  -12.34832
       H    -4.62919   -3.00481   -7.40016
       O    -4.15290   -2.11715   -7.46832
      H1    -4.64652   -1.61078   -8.13533
       H    -7.76367    2.16893   -4.53596
       O    -7.11306    2.54780   -3.96508
      H1    -6.95665    1.97278   -3.18803
       H    -9.60977    4.21933   -5.59765
       O    -9.28992    5.06452   -5.94769
      H1    -9.66617    5.75188   -5.33778
       H    -4.35382   -1.33872   -6.06702
       O    -4.69801   -0.86736   -5.28637
      H1    -3.99786   -0.16420   -5.16511
       H    -9.07726   -1.53348   -8.63002
       O    -9.30042   -1.65204   -9.57815
      H1    -8.39844   -1.60135  -10.03964
       H    -9.01916    0.83519   -6.11445
       O    -8.89824    1.73787   -5.72160
      H1    -9.71758    1.95492   -5.23521
       H   -11.44100   -5.76118  -10.06838
       O   -11.91398   -5.65119   -9.21824
      H1   -11.74615   -4.74002   -8.91250
       H   -14.52538   -4.95430   -3.56494
       O   -15.41198   -4.68320   -3.59388
      H1   -15.62320   -4.97464   -4.54015
       H   -13.34013   -3.66357   -0.47276
       O   -12.40169   -3.54179   -0.62242
      H1   -11.95947   -3.47549    0.21162
       H    -9.03714   -5.98146   -4.93445
       O    -9.00903   -5.83378   -4.01217
      H1    -9.81930   -5.28529   -3.82362
       H   -15.72010   -1.70978   -8.83640
       O   -15.46951   -2.64720   -8.99975
      H1   -15.08534   -2.60193   -9.88375
       H    -8.36731   -4.48257   -9.58779
       O    -7.73894   -4.92166   -8.98553
      H1    -7.73647   -5.80543   -9.34836
       H    -7.83149   -4.13079   -4.23246
       O    -7.43135   -3.38693   -4.69750
      H1    -7.00176   -3.86656   -5.42261
       H   -14.96605   -2.75451   -4.37440
       O   -14.96365   -2.17891   -5.11398
      H1   -14.04320   -2.26096   -5.40608
       H   -13.44250   -0.06146  -10.32780
       O   -12.57922   -0.25196   -9.99133
      H1   -11.99006   -0.06467  -10.82261
       H    -6.82389    0.67908   -7.58694
       O    -6.70574   -0.23525   -7.23577
      H1    -6.06412   -0.20958   -6.49004
       H    -8.10012   -5.90939   -7.60281
       O    -8.08189   -6.30579   -6.72277
      H1    -7.15032   -6.42371   -6.48543
       H    -7.22129    0.80508  -12.84439
       O    -7.62642   -0.05554  -12.96554
      H1    -8.56968    0.03849  -12.81747
       H    -7.72510    2.61215   -9.15657
       O    -6.94125    2.36059   -8.63851
      H1    -6.92484    3.06637   -8.00928
       H   -15.79253    3.46839   -7.14379
       O   -15.05163    3.11719   -7.60761
      H1   -14.35001    3.70426   -7.31371
       H   -12.26780   -1.32647   -4.37922
       O   -12.19455   -1.41719   -5.35202
      H1   -12.55984   -0.63732   -5.70883
       H    -9.45484    2.73036  -11.10749
       O    -9.25018    2.86656  -10.14078
      H1    -9.83365    2.16358   -9.71402
       H    -7.42232   -2.91761  -11.48955
       O    -6.97043   -2.09558  -11.29205
      H1    -7.18155   -1.50668  -12.03804
       H   -12.43725   -6.78940   -7.84839
       O   -12.58765   -7.34223   -6.99714
      H1   -11.66827   -7.44680   -6.69338
       H   -10.55662   -8.87688   -5.47775
       O   -10.39335   -7.96546   -5.78081
      H1    -9.48617   -7.89459   -6.08616
       H    -6.55094   -0.17393   -2.28337
       O    -6.83499    0.73391   -2.04998
      H1    -7.68027    0.68979   -1.55710
       H   -10.65306    0.90679   -1.80583
       O   -11.48501    1.14554   -2.26046
      H1   -11.23571    1.57817   -3.11896
       H   -11.56494   -4.26694   -3.55591
       O   -11.12828   -4.47874   -2.72655
      H1   -11.69818   -4.07484   -1.99922
       H    -7.08501   -6.27941   -4.20537
       O    -6.32809   -6.85595   -4.34962
      H1    -6.74336   -7.72501   -4.63310
       H   -16.12158    1.16424   -9.56242
       O   -15.87119    0.76020   -8.74883
      H1   -15.74942    1.48579   -8.13350
       H    -5.03713   -5.12608   -3.40365
       O    -5.20170   -4.53175   -2.67523
      H1    -4.36812   -4.08972   -2.53704
       H    -8.54322   -0.81691   -6.83116
       O    -9.53422   -0.75820   -6.86234
      H1    -9.96284   -1.50413   -6.37723
       H   -11.92394   -2.21566   -8.60319
       O   -11.79513   -3.09876   -8.17956
      H1   -12.00043   -2.94938   -7.25674
       H    -5.53212   -1.16144   -3.71798
       O    -5.86616   -1.55875   -2.90121
      H1    -6.45614   -2.30622   -3.17228
       H    -9.26662   -9.03992   -3.47804
       O    -9.19303   -8.32704   -2.86979
      H1    -9.35043   -7.50270   -3.30865
       H    -7.91093   -2.11064   -0.49555
       O    -7.78628   -1.41463    0.15161
      H1    -8.13668   -1.87166    0.91500
       H    -6.70670    4.93351   -2.34317
       O    -7.58793    4.95442   -2.75336
      H1    -7.61271    4.09647   -3.23139
       H    -8.95431   -3.35490   -6.10117
       O    -9.79047   -3.67460   -6.46501
      H1   -10.07315   -3.33679   -7.35751
       H   -12.82318    1.51878   -1.13813
       O   -13.33635    1.70950   -0.30688
      H1   -12.67399    1.46744    0.34881
       H   -11.80859    2.51213   -5.46024
       O   -11.21263    2.63504   -4.70239
      H1   -11.80693    3.03540   -3.98979
       H   -14.69222   -1.50533   -2.30378
       O   -15.52781   -1.49101   -1.84398
      H1   -16.00157   -0.91032   -2.41288
       H   -13.29298   -6.55715   -3.78885
       O   -12.99944   -6.30197   -2.91930
      H1   -12.35167   -5.65390   -2.95262
       H    -8.94828   -3.95199  -12.64837
       O    -8.43936   -4.36171  -11.96103
      H1    -8.03987   -5.11204  -12.38300
       H   -12.27754   -0.38479   -2.24508
       O   -12.84570   -1.23342   -2.31569
      H1   -12.59973   -1.75304   -1.50930
       H    -5.77160   -0.18920   -8.95595
       O    -5.13265   -0.40173   -9.62239
      H1    -5.66151   -0.90660  -10.34039
       H    -9.85226   -3.57641   -1.74211
       O    -9.02543   -3.35442   -1.43020
      H1    -8.68003   -4.22203   -1.22092
       H   -15.87962    1.17882   -3.70751
       O   -16.29610    0.28373   -3.92911
      H1   -15.72331   -0.13526   -4.57176
       H    -7.73085    2.69879  -11.14284
       O    -7.02098    2.58557  -11.76721
      H1    -7.24081    3.09898  -12.57318
       H   -11.56992    0.73356   -9.04485
       O   -10.77012    1.17766   -8.64023
      H1   -10.18907    0.50233   -8.27058
       H   -12.41212   -5.46160   -5.77383
       O   -12.03402   -4.57516   -5.48187
      H1   -11.13093   -4.56685   -5.96983
       H    -8.80117   -0.20274   -0.15469
       O    -9.15535    0.62536   -0.49350
      H1    -8.68627    1.28854    0.01230
       H   -13.80119   -5.87807  -11.25039
       O   -14.29464   -5.49469  -10.49582
      H1   -13.65010   -5.37981   -9.77178
       H    -4.81904   -4.85158   -6.74340
       O    -5.53766   -4.22645   -6.99398
      H1    -6.05530   -4.69818   -7.67574

