174
frame 7 | Written by MDAnalysis XYZWriter (release 2.4.3)
       H     9.53350   -2.05689   15.89709
       O     9.01445   -2.69702   16.40624
      H1     9.56778   -3.44778   16.29363
       H     5.84987    3.43377   10.98497
       O     4.98086    3.01563   10.77627
      H1     4.45306    3.19875   11.55677
       H     2.14093    3.55865    9.20895
       O     2.66623    4.17729    9.75626
      H1     3.51298    3.64946    9.94077
       H    10.35926    4.30716   16.22165
       O     9.60902    4.16519   16.81375
      H1     9.82688    3.34180   17.33108
       H     8.71573    2.36335   15.87780
       O     8.23773    1.49211   15.94015
      H1     7.64852    1.63721   15.14280
       H     4.55701   -2.48981   13.26429
       O     4.78280   -2.63041   12.32543
      H1     4.06787   -2.18480   11.82874
       H     8.03918   -3.16254   11.96374
       O     7.67236   -2.79983   11.13470
      H1     6.71646   -2.76021   11.16915
       H     5.93261    5.39356   18.45629
       O     5.42037    6.21658   18.53977
      H1     5.03747    6.30388   17.62438
       H    -0.02991    2.92751   13.74610
       O    -0.60039    3.01076   14.49390
      H1    -0.03074    2.80978   15.26407
       H     0.96724   -1.12999   18.20639
       O     1.83037   -1.07534   17.79521
      H1     2.00878   -2.02751   17.53473
       H     1.37545   -6.84586   14.63005
       O     1.80898   -6.59603   15.46966
      H1     2.74059   -6.60338   15.24926
       H    11.01536    2.11920   14.00421
       O    11.92173    1.83103   14.38085
      H1    12.52927    1.74953   13.63083
       H     3.63172    6.32260   16.43891
       O     4.31529    6.82813   16.02010
      H1     3.94624    7.70723   15.92270
       H    -0.96957   -0.84526   13.62816
       O    -1.84163   -1.17251   13.87287
      H1    -2.45973   -0.38427   13.85808
       H     6.99406   -3.00073   15.53048
       O     6.00237   -2.79501   15.45123
      H1     5.57286   -2.89983   16.33463
       H     3.05563    3.87498   13.51640
       O     3.76178    3.18663   13.52098
      H1     3.84252    2.98980   14.43777
       H     4.97523    0.23132   16.46554
       O     4.96226   -0.30387   15.65670
      H1     5.48224   -1.10056   15.85353
       H     1.18061    1.45736   16.29606
       O     0.89298    2.29495   16.63710
      H1     0.32277    2.14148   17.43511
       H     3.26858   -0.52523   10.19571
       O     3.28037   -1.47730   10.27311
      H1     4.00195   -1.74375    9.69634
       H    -0.43392   -3.54227   14.29507
       O    -1.36729   -3.85567   14.06428
      H1    -1.93017   -3.06144   13.96694
       H     4.67848    6.47220   14.16672
       O     5.05252    6.41185   13.28631
      H1     5.54766    7.22836   13.08424
       H     2.67729   -1.36892   13.73789
       O     3.21664   -1.80367   14.39205
      H1     3.78234   -1.10863   14.84663
       H     9.73533   -0.26277   14.03683
       O     9.36263   -0.43742   13.11820
      H1     8.42309   -0.35947   13.34450
       H     1.62541   -0.03119   14.38066
       O     0.98009   -0.05889   15.10467
      H1     1.33957   -0.61198   15.82372
       H     6.60907    1.74220   13.54938
       O     6.65764    2.58212   14.01819
      H1     5.94594    3.11356   13.57149
       H     4.72666    0.64648   18.56456
       O     5.13318    1.29035   17.96244
      H1     6.08149    1.26040   18.16401
       H     7.51538    4.38795   13.77373
       O     7.67588    5.35214   13.66681
      H1     6.75287    5.61689   13.57330
       H     6.69242   -3.08666   18.49738
       O     7.46887   -3.66919   18.55141
      H1     7.98592   -3.33014   17.78816
       H     8.51235   -1.06416    8.69855
       O     8.26541   -0.67628    9.55205
      H1     8.06119   -1.44499   10.10088
       H     6.60912    0.40009    9.64038
       O     5.74847    0.61837    9.35700
      H1     5.41215    1.37829    9.85928
       H    -1.00476    0.18727   18.78353
       O    -0.72212   -0.69006   19.09629
      H1    -0.97248   -0.70447   20.03148
       H    11.78698   -0.92654   16.11009
       O    12.53636   -1.51808   16.07802
      H1    12.89914   -1.28634   15.22900
       H     7.65161   -5.02271   13.63793
       O     7.78359   -4.06584   13.69357
      H1     6.95666   -3.69632   14.00607
       H     4.47708   -4.44729   11.86352
       O     4.46422   -5.41677   11.67196
      H1     5.40619   -5.80408   11.74458
       H     0.94403    6.13870   15.66499
       O     0.75700    6.68008   14.88409
      H1     1.45268    7.35198   15.00045
       H     4.23198   -6.26256   13.32905
       O     4.38748   -6.53283   14.25789
      H1     4.58609   -7.47454   14.15764
       H    -1.61479    2.90915   18.54830
       O    -1.02339    2.35345   19.08129
      H1    -0.39162    2.97087   19.55124
       H     4.53431   -7.21675   19.28114
       O     4.28761   -6.65454   18.54417
      H1     5.12775   -6.66379   18.04741
       H     2.47138    5.98761   18.15547
       O     2.28004    5.63992   17.24683
      H1     2.71970    4.71880   17.29101
       H    11.60098   -1.10985   11.15239
       O    11.42627   -0.20849   11.41702
      H1    10.69894   -0.06453   12.03704
       H     2.58221    2.95858   16.62522
       O     3.48564    3.28654   16.50338
      H1     4.09507    2.73743   16.93527
       H     1.49175    5.19995   12.23267
       O     2.08757    5.48062   12.86522
      H1     1.62692    5.91005   13.56558
       H     2.11915   -3.31598   14.71089
       O     1.29999   -3.78402   14.82688
      H1     1.45638   -4.72352   14.97071
       H     6.27378   -0.53452   12.91308
       O     6.82307   -0.34886   13.65268
      H1     6.14197   -0.30632   14.40837
       H     8.14530    4.41488   18.01234
       O     7.42424    4.19480   18.60561
      H1     7.80754    4.24166   19.46614
       H    -0.02554   -2.81642   11.87416
       O     0.37303   -1.92929   11.79538
      H1    -0.17999   -1.62739   11.07223
       H    10.38766    3.68263   12.39503
       O     9.96633    3.13132   13.11564
      H1     9.50423    2.47011   12.60711
       H     9.61849    2.46775   19.64305
       O    10.01029    2.31822   18.76526
      H1    10.86763    1.89599   18.98218
       H     8.97203    1.04574   18.54945
       O     8.22451    0.37759   18.48673
      H1     8.00930    0.43491   17.52374
       H     4.37422   -2.73706   18.40208
       O     5.06429   -2.15578   18.73305
      H1     4.62370   -1.82277   19.54072
       H     6.22717   -6.59824   14.66827
       O     7.07547   -6.53163   15.12755
      H1     7.37375   -7.42518   15.07753
       H     2.31146    1.36067   12.43359
       O     2.40979    0.46805   12.74336
      H1     2.02071   -0.05634   12.04076
       H     9.78575    0.53239   16.00944
       O    10.49613    0.01005   15.62688
      H1    11.24060    0.58677   15.38282
       H    -0.26774    3.30576   11.72351
       O     0.27234    2.54132   11.96405
      H1     0.53588    2.26975   11.05707
       H     7.19089   -6.36057   16.93449
       O     6.97269   -6.44197   17.87671
      H1     7.13916   -5.57867   18.25134
       H     2.33586   -4.32398   17.97346
       O     2.47794   -3.76871   17.20438
      H1     1.80143   -3.82597   16.54495
       H     9.67986   -3.45112   13.67284
       O    10.52690   -3.01081   13.50463
      H1    10.27052   -2.09351   13.23318
       H     6.99733    5.10629   10.07654
       O     7.44179    4.43302   10.62819
      H1     7.63331    4.91847   11.43758

