177
frame 1 | Written by MDAnalysis XYZWriter (release 2.4.3)
       H     8.94521  -11.23697   10.89047
       O     9.52818  -11.94522   11.15608
      H1     8.97168  -12.64503   11.55728
       H    17.64966  -11.14441   15.14890
       O    17.86804  -11.80876   15.80493
      H1    17.01335  -12.18593   16.12556
       H    12.18797   -6.50164   11.29914
       O    11.24670   -6.31871   11.18884
      H1    11.14804   -5.34608   11.27282
       H     5.52984   -9.65061    8.76683
       O     5.62701   -9.86007    9.72482
      H1     6.57518   -9.79997    9.97514
       H     9.38239   -2.80629   16.66191
       O     9.86744   -2.87005   17.47713
      H1    10.04684   -3.79300   17.61097
       H     8.87380  -14.06684   14.27241
       O     9.58908  -14.66600   14.54699
      H1     9.09756  -15.34853   15.00669
       H     7.51440   -9.82209   11.73283
       O     7.92917   -9.58476   10.91357
      H1     8.52575   -8.84894   11.23455
       H    12.69391  -14.38005   15.54099
       O    11.84286  -14.42205   15.96087
      H1    11.06056  -14.45903   15.32347
       H    14.26887   -7.21272   12.12042
       O    13.78956   -7.32143   11.26952
      H1    14.25070   -6.87909   10.55726
       H    13.19949  -11.52423   15.74244
       O    12.76562  -10.68558   15.56038
      H1    12.25399  -10.74144   14.72363
       H    10.15425  -15.85905   13.15652
       O    10.41151  -16.76828   12.94113
      H1     9.86220  -17.30888   13.46753
       H    14.88081  -12.80695   17.07532
       O    15.18219  -12.19920   16.39163
      H1    15.21708  -11.36109   16.77874
       H    10.26784   -8.85195   16.98622
       O     9.77761   -8.35556   16.27500
      H1     9.17048   -7.74932   16.80982
       H    12.15346   -7.14433   14.27048
       O    11.30456   -6.69693   14.24910
      H1    10.59110   -7.34149   14.59125
       H    11.45598   -4.72610   13.74561
       O    11.66147   -3.82308   13.99614
      H1    11.84310   -3.46789   13.11951
       H    12.13239  -10.07757   17.15879
       O    11.78774   -9.69180   17.98261
      H1    11.67453  -10.48362   18.50392
       H    13.20745   -8.70464   19.13302
       O    13.95353   -8.42141   19.65605
      H1    14.14519   -7.50827   19.52895
       H     4.99464   -3.98110   16.17567
       O     5.27040   -3.57997   15.32879
      H1     4.55389   -3.65902   14.68002
       H    12.85574   -3.01526   15.01488
       O    13.56960   -2.50857   15.36855
      H1    13.11752   -1.86404   15.96342
       H    13.69338   -9.09008    9.86200
       O    13.79457   -9.71537    9.14848
      H1    13.44174  -10.50898    9.57549
       H    10.84647  -12.67301   19.29769
       O    10.77133  -12.38188   18.33910
      H1    10.89540  -13.18659   17.81210
       H    14.97781   -8.88571   16.38547
       O    14.66696   -8.69997   15.51361
      H1    13.85994   -9.28646   15.45052
       H     7.01860   -6.27662   13.66143
       O     7.20548   -6.29591   12.71355
      H1     8.12423   -6.70427   12.70666
       H     7.96458  -11.89989   18.56078
       O     7.66291  -11.84341   17.59690
      H1     8.50783  -11.78808   17.16719
       H    10.85850  -11.61471   12.46443
       O    11.39719  -11.45382   13.21494
      H1    12.22293  -11.92474   13.05816
       H     3.49094  -11.23107   14.63505
       O     4.20287  -11.03984   13.99285
      H1     3.97866  -11.34163   13.12140
       H     7.02125  -16.73711   14.91720
       O     7.26123  -16.15942   15.67188
      H1     6.52791  -15.62354   15.97854
       H     9.49125   -8.84402   12.83693
       O     9.32528   -7.99422   12.47065
      H1    10.12606   -7.49269   12.37698
       H    10.22409   -6.21525   17.09298
       O    11.10401   -5.72820   17.02173
      H1    11.30356   -5.93243   16.11912
       H    15.04673  -14.75620   14.13647
       O    14.19967  -14.35423   13.96423
      H1    14.43118  -13.55854   13.35370
       H    16.38174  -10.23155   18.27463
       O    15.60552   -9.83992   17.88775
      H1    15.20426   -9.24421   18.56243
       H     2.37185  -10.53524   16.77082
       O     2.72252  -11.29055   16.22179
      H1     3.41764  -11.72174   16.70037
       H     7.51122  -12.27816   13.15882
       O     7.77957  -13.16042   12.80798
      H1     7.04957  -13.55502   12.23513
       H    11.06614  -17.03993   17.92791
       O    11.14691  -16.84185   17.02034
      H1    11.33436  -15.89339   16.83210
       H     9.20102   -1.26925   18.74044
       O     9.02618   -1.04360   19.68149
      H1     8.95064   -0.11917   19.64265
       H     6.66743   -9.20104   18.83467
       O     6.68810   -8.96965   17.89601
      H1     7.17416   -9.73337   17.60020
       H    15.43935   -7.75468   14.17442
       O    15.44420   -7.29074   13.32886
      H1    15.50319   -6.38324   13.59641
       H    15.07989  -13.87819   18.77063
       O    14.29481  -13.99896   18.28322
      H1    13.58912  -14.28189   18.91501
       H    13.04160   -4.96844   17.44298
       O    13.90261   -4.58778   17.40254
      H1    13.82909   -3.84776   16.77442
       H     7.53147   -4.62094   12.72702
       O     7.97802   -3.74846   12.68411
      H1     8.31170   -3.50216   13.53995
       H     4.58011   -5.24882   11.93858
       O     4.87300   -6.07228   11.50053
      H1     5.77614   -6.28796   11.83570
       H    14.67106  -11.25368   12.24316
       O    14.30177  -12.12053   12.17037
      H1    14.58528  -12.37095   11.30392
       H     4.38498   -7.43991   12.64739
       O     3.87965   -7.80130   13.39627
      H1     4.21761   -8.68363   13.59538
       H     5.17897   -7.91717   17.35433
       O     4.72172   -7.17649   16.96512
      H1     4.96693   -6.37985   17.47169
       H    12.71904   -1.38448   18.38032
       O    12.32205   -1.21535   17.50939
      H1    11.70885   -1.94126   17.43644
       H     4.92068  -14.23873   15.25291
       O     4.78056  -14.49858   16.16927
      H1     3.83668  -14.52253   16.17077
       H    17.11186   -4.51901   17.84395
       O    16.46130   -4.41926   18.51855
      H1    15.67428   -4.84113   18.17380
       H    17.90676   -8.97198   14.25366
       O    17.76470   -9.86261   13.81274
      H1    17.01230   -9.74610   13.27349
       H     9.65329   -7.07529    8.47967
       O    10.59143   -7.29360    8.59704
      H1    10.78715   -6.96798    9.45788
       H     9.56160   -9.87438   15.36046
       O     9.23275  -10.44610   14.67649
      H1     9.98256  -10.83930   14.24783
       H     7.05891  -13.41854   17.83892
       O     6.57388  -14.25505   17.98310
      H1     5.70234  -14.06619   17.51562
       H     7.39252  -10.39944   13.89718
       O     6.75385  -10.41180   13.18576
      H1     5.88333  -10.64157   13.58076
       H     3.30764   -4.34178   17.82822
       O     4.25381   -4.35916   17.91566
      H1     4.56513   -3.52861   18.29158
       H     5.86086   -6.34324   15.66218
       O     6.58022   -5.72653   15.47458
      H1     6.15286   -4.85197   15.33745
       H    16.65471   -4.53668   14.44323
       O    16.36432   -4.81492   13.56066
      H1    16.45003   -3.96100   13.12206
       H    15.92965  -10.03723   10.62834
       O    15.98119   -9.75888   11.50980
      H1    15.61633   -8.86392   11.52625
       H     7.61924   -6.24824   16.72713
       O     8.11032   -6.65753   17.42954
      H1     7.51482   -7.35656   17.70944
       H     9.68171   -4.05540   10.04505
       O    10.05105   -3.98677   10.89988
      H1     9.27864   -3.99602   11.52626
       H    10.34997   -2.63959   14.65311
       O     9.42600   -2.33709   14.73930
      H1     9.43849   -1.39006   14.62966

