177
frame 3 | Written by MDAnalysis XYZWriter (release 2.4.3)
       H    -8.19370    7.73539  -18.18674
       O    -8.79289    8.53058  -18.03834
      H1    -9.29196    8.31131  -17.20791
       H    -7.03205    4.80812  -18.85191
       O    -6.17076    4.96009  -18.42105
      H1    -5.43516    4.57582  -18.91942
       H   -11.66075   10.32662  -13.72158
       O   -12.19476    9.62916  -13.44121
      H1   -12.40013    9.71132  -12.48643
       H    -4.92343   11.32274  -13.68116
       O    -5.50503   11.77333  -13.00871
      H1    -6.15856   11.10028  -12.80261
       H   -12.07995    7.88133  -18.67242
       O   -11.32735    8.00095  -19.26045
      H1   -10.60630    8.25288  -18.67231
       H    -9.12144   -0.09855  -16.67936
       O    -9.73659   -0.76461  -16.90239
      H1   -10.52911   -0.30375  -17.24972
       H    -3.62337   -1.99979  -17.15826
       O    -2.91916   -2.66934  -16.96313
      H1    -2.70562   -2.57015  -16.02812
       H   -13.69508    1.61344  -15.39233
       O   -14.28963    2.18651  -15.91429
      H1   -15.09801    2.47850  -15.46774
       H    -0.81590    4.85220  -13.70453
       O    -1.30341    4.03255  -13.86032
      H1    -1.62014    3.73924  -13.00687
       H    -3.31400    7.07778  -10.34598
       O    -3.43077    6.36226  -10.97856
      H1    -3.33724    6.75607  -11.86244
       H   -11.29449    6.35949  -19.31276
       O   -11.40082    5.39992  -19.13131
      H1   -11.94742    5.27981  -18.37023
       H    -7.31022   11.22623  -17.13561
       O    -7.89173   10.70542  -16.62218
      H1    -7.97691    9.90494  -17.18701
       H   -13.58774    6.78029  -17.25643
       O   -13.54889    7.60582  -17.79009
      H1   -13.77581    8.34197  -17.14536
       H    -5.99698    6.75318  -18.26073
       O    -5.89578    7.70001  -18.44027
      H1    -5.40328    7.95910  -17.66432
       H    -6.35678    5.62841  -15.70473
       O    -5.95246    6.47490  -15.41055
      H1    -5.05128    6.27071  -15.40996
       H    -0.94042    5.98592  -17.72213
       O    -1.32714    6.42195  -16.93711
      H1    -1.85792    7.18525  -17.16999
       H   -11.12740    7.05582  -12.03375
       O   -10.67300    6.23924  -11.81986
      H1    -9.72240    6.49815  -11.74176
       H     0.36178    3.19055  -18.01604
       O     0.74341    3.27499  -18.96450
      H1     1.63124    3.62488  -18.84634
       H    -7.64114    0.96605  -12.42271
       O    -7.98430    0.14382  -12.90105
      H1    -8.88767    0.04018  -12.55174
       H    -8.45821   -1.08676  -18.85492
       O    -8.62435   -1.50119  -19.71525
      H1    -8.11756   -2.37311  -19.63857
       H    -4.79133    1.62087  -19.55593
       O    -4.04167    1.34390  -19.02452
      H1    -4.02528    1.80829  -18.16324
       H   -15.42055    0.37330  -19.46612
       O   -14.46944    0.43357  -19.65671
      H1   -14.18497    0.26327  -18.75068
       H    -7.40568    8.13040  -15.06053
       O    -7.78176    8.28325  -14.23592
      H1    -7.56445    7.52081  -13.65376
       H   -11.98176    3.10384  -11.34527
       O   -11.11063    3.39969  -11.58591
      H1   -11.19774    4.37882  -11.65908
       H    -4.23260    8.95286  -13.92693
       O    -4.50722    9.62619  -14.58556
      H1    -5.45829    9.45835  -14.61250
       H   -11.46522   11.75576  -16.57170
       O   -11.06840   10.85516  -16.60898
      H1   -10.25152   10.93453  -16.05799
       H    -9.38534   -2.50130  -15.94033
       O    -8.76897   -2.99275  -15.35183
      H1    -9.30611   -3.11105  -14.55052
       H   -11.63696   12.16459  -18.89778
       O   -11.13771   13.01480  -18.89309
      H1   -11.34557   13.44283  -19.79318
       H   -10.45929    4.01201  -16.12013
       O    -9.63776    3.74642  -15.70365
      H1    -9.89827    3.20027  -14.96372
       H     0.03278    7.53790  -16.61676
       O     0.53650    8.37683  -16.54410
      H1     1.09340    8.29328  -15.75876
       H    -4.96132   -1.76853  -18.69766
       O    -4.84859   -1.23253  -17.89758
      H1    -4.72630   -0.33625  -18.17492
       H   -12.00215   10.31941  -18.59888
       O   -12.62536   10.72281  -19.19342
      H1   -12.62707   10.15417  -19.99590
       H    -6.95985   12.79594  -18.64691
       O    -6.38053   12.57255  -17.82199
      H1    -6.46132   13.34149  -17.24495
       H    -6.07872    0.55164  -16.93521
       O    -6.78932    1.18249  -17.16756
      H1    -6.50918    2.04731  -16.80813
       H    -2.63105    3.09304  -10.91442
       O    -2.05846    3.82374  -11.04669
      H1    -2.77448    4.57248  -10.98663
       H    -8.38476    5.73176  -20.04024
       O    -8.70602    5.44513  -19.19913
      H1    -9.58412    5.12592  -19.27393
       H    -0.18866    1.98883  -16.05879
       O     0.18454    2.89073  -16.17502
      H1    -0.40394    3.48957  -15.73796
       H    -9.23984    1.25526  -13.36423
       O    -9.96502    1.82240  -13.70336
      H1   -10.26144    2.41183  -12.97180
       H    -2.70119    5.76096  -15.88735
       O    -3.27778    5.43506  -15.15811
      H1    -2.62836    5.13200  -14.53926
       H    -6.61393    4.16274  -17.11649
       O    -6.87471    3.80374  -16.18407
      H1    -7.82925    3.82523  -16.19473
       H    -1.32023   -0.09785  -16.26852
       O    -1.77335    0.52948  -15.69597
      H1    -1.37575    0.39393  -14.83401
       H    -9.26849    7.75443  -14.97509
       O    -9.82123    7.40621  -15.69975
      H1   -10.61593    7.11879  -15.34099
       H    -2.93565    1.98404  -16.37138
       O    -3.70262    2.49328  -16.60449
      H1    -3.65540    3.40460  -16.24708
       H    -5.04795    5.65463  -10.45099
       O    -5.95040    5.37398  -10.24589
      H1    -5.84882    4.43399  -10.11234
       H     0.07533   -1.12877  -17.58541
       O    -0.86541   -0.80587  -17.75819
      H1    -1.51990   -1.53572  -17.55756
       H    -1.15707    8.90277  -19.13060
       O    -2.05644    9.15203  -18.95963
      H1    -2.50662    8.64987  -19.67714
       H   -12.42704   -1.03529  -18.24284
       O   -12.48523   -1.06069  -17.27922
      H1   -13.16097   -1.72141  -17.13826
       H   -13.97670    4.49833  -18.26977
       O   -13.52735    4.57077  -17.37649
      H1   -13.84749    3.77544  -16.95045
       H    -1.87522    5.03426  -19.44627
       O    -0.93314    5.21855  -19.44126
      H1    -0.41572    4.35778  -19.39275
       H    -7.26601    5.99973  -11.31193
       O    -7.79760    6.62203  -11.78600
      H1    -7.75217    7.49821  -11.22938
       H   -12.03887   -0.26243  -15.25354
       O   -12.33041    0.46670  -14.65092
      H1   -11.52629    0.84884  -14.28105
       H   -13.83065   10.89340  -16.49011
       O   -14.09942   10.06512  -16.00009
      H1   -13.26207    9.79721  -15.54612
       H    -2.65535    8.34641  -13.19471
       O    -3.26138    7.61158  -13.26551
      H1    -2.97721    7.19940  -14.13122
       H    -6.27358   -3.09055  -15.01547
       O    -5.64670   -3.72204  -14.73379
      H1    -5.30027   -4.23372  -15.45465
       H   -12.77579    6.48389  -13.88308
       O   -12.87044    7.18463  -14.52329
      H1   -12.61306    7.93408  -13.97793
       H    -8.82319   11.61474  -15.36083
       O    -9.27152   11.99372  -14.61259
      H1    -8.74315   11.69822  -13.81020
       H    -7.90474    2.71246  -10.86995
       O    -7.18769    2.35489  -11.37492
      H1    -7.18345    2.85996  -12.21245
       H    -6.50474    4.06991  -14.43937
       O    -6.57556    4.12542  -13.47223
      H1    -6.86903    5.04761  -13.36886
       H    -3.21318    8.81547  -17.49938
       O    -3.67913    8.20221  -16.86129
      H1    -4.09670    8.76783  -16.20777

