177
frame 0 | Written by MDAnalysis XYZWriter (release 2.4.3)
       H   -15.75084  -13.80782    8.57393
       O   -15.68414  -13.93624    7.62819
      H1   -15.67845  -13.03334    7.26725
       H    -6.89018  -16.80739   11.44504
       O    -5.94213  -16.73653   11.39164
      H1    -5.61387  -17.34342   10.75272
       H   -16.88713  -16.41341   17.15747
       O   -16.05264  -16.44954   16.67036
      H1   -15.95556  -17.37383   16.36904
       H   -10.49317  -15.75235   12.43743
       O   -11.30787  -15.36414   12.81452
      H1   -11.73240  -14.84968   12.10141
       H   -17.69841  -10.54162   10.55703
       O   -17.49722  -11.27124   11.15353
      H1   -18.12638  -11.25788   11.89438
       H   -12.73023   -8.59126   17.13647
       O   -12.88012   -7.87543   17.81119
      H1   -13.38914   -8.34168   18.46295
       H   -10.90235   -9.90633   16.07403
       O   -11.48310  -10.39752   16.76381
      H1   -12.30179  -10.45329   16.30227
       H   -10.86162  -11.23049   19.99072
       O   -11.62293  -11.51302   19.48700
      H1   -11.63273  -10.93701   18.70549
       H    -5.18912  -16.17514   14.63621
       O    -4.99292  -16.97221   14.20931
      H1    -5.03765  -16.62927   13.32666
       H   -14.29664   -9.65240   15.43841
       O   -14.28531  -10.30722   16.18174
      H1   -15.17912  -10.22622   16.53967
       H   -15.58845  -14.41640   19.34221
       O   -16.34856  -14.02402   18.88837
      H1   -16.06585  -13.69048   18.00135
       H   -11.84301  -14.07578   16.67757
       O   -11.25358  -13.72363   17.38093
      H1   -11.52638  -12.80841   17.67661
       H   -11.31615   -8.34731   14.31077
       O   -10.65257   -8.92515   14.72957
      H1   -10.68875   -9.65100   14.12119
       H    -7.76875  -14.25564   15.99183
       O    -7.30436  -14.91811   15.44732
      H1    -7.30216  -14.68043   14.52384
       H   -15.10884  -12.32848   16.35889
       O   -15.73549  -13.01344   16.54552
      H1   -15.53074  -13.62192   15.79296
       H   -10.53733  -11.22140    9.50559
       O    -9.72928  -11.49899    9.14550
      H1    -9.84332  -11.04228    8.26695
       H    -8.16917  -11.80755   10.59523
       O    -7.46616  -11.95151   11.27793
      H1    -7.59440  -11.41892   12.10428
       H   -12.02983  -18.22849   20.21672
       O   -12.55322  -18.48336   19.40349
      H1   -12.39543  -17.72434   18.85076
       H   -12.84932  -11.12271    9.99125
       O   -12.12453  -11.59649   10.48050
      H1   -12.49642  -12.46410   10.72876
       H    -9.43168  -17.52026   12.39175
       O    -8.99366  -16.86037   11.87000
      H1    -9.40761  -16.93015   11.01257
       H    -7.57701  -13.40168   12.33256
       O    -7.80627  -14.27145   12.83776
      H1    -8.28282  -14.84750   12.20771
       H   -14.48472  -19.65423   17.64166
       O   -14.14376  -19.53162   16.74168
      H1   -13.61616  -18.73999   16.76615
       H   -12.83029  -15.26884    8.48695
       O   -12.15221  -15.83929    8.92322
      H1   -12.62555  -16.45675    9.52132
       H   -13.61827  -11.66476   14.94317
       O   -13.29832  -12.30967   14.35236
      H1   -12.31676  -12.14795   14.30311
       H    -8.60179   -7.60640   16.04845
       O    -7.75633   -8.13815   16.10641
      H1    -7.93389   -8.83528   15.49365
       H   -14.60663  -11.53522   13.03583
       O   -14.96842  -10.85829   12.41427
      H1   -15.89241  -11.08749   12.10527
       H   -12.47011  -17.40092   12.77263
       O   -12.42412  -17.83631   13.66884
      H1   -11.61829  -17.44726   14.06156
       H   -10.66367   -8.99802   18.92360
       O   -10.64308   -8.16772   19.35401
      H1    -9.68944   -7.99409   19.33619
       H   -17.67346  -12.99055   16.20906
       O   -18.56532  -13.16323   16.56500
      H1   -19.11694  -12.38953   16.34644
       H    -9.57606  -15.97295   17.18778
       O    -9.12751  -16.52481   16.61147
      H1    -8.41420  -15.88320   16.17978
       H    -4.37453  -14.98520   11.49551
       O    -4.66976  -14.38141   12.19517
      H1    -5.53636  -14.61437   12.42331
       H   -20.05178  -15.18297   13.51849
       O   -19.32081  -14.53179   13.62964
      H1   -19.39715  -14.34904   14.53031
       H   -15.43815  -15.91316   11.52766
       O   -15.47978  -14.93792   11.69382
      H1   -15.92239  -14.89089   12.61617
       H    -8.86551  -17.04144    8.87116
       O    -9.72680  -17.38406    9.10473
      H1   -10.35783  -16.62722    8.93639
       H    -8.28159  -17.91949   17.46605
       O    -8.06167  -18.75544   18.00325
      H1    -7.11626  -18.77763   18.12051
       H    -9.45869  -19.11188   14.65150
       O    -9.66741  -18.21879   14.46910
      H1    -9.32346  -17.55771   15.07206
       H   -14.76196  -11.67648   10.51070
       O   -14.89650  -11.61814    9.52383
      H1   -14.63943  -10.73919    9.23123
       H    -7.67722  -10.14324   14.00589
       O    -8.14595  -10.28576   13.18738
      H1    -8.10377   -9.36988   12.82260
       H   -15.83009  -18.66186   19.49519
       O   -15.06955  -19.28905   19.37471
      H1   -14.29493  -18.69863   19.32601
       H    -8.85981  -12.65302   15.37770
       O    -8.66829  -12.79082   16.28178
      H1    -9.43298  -13.31194   16.59917
       H   -13.14472  -14.08904   14.95154
       O   -12.62645  -14.79503   15.25623
      H1   -12.04394  -15.00584   14.50504
       H    -5.36575  -10.48835   15.03925
       O    -6.26332  -10.59916   15.33638
      H1    -6.20663  -10.86674   16.25731
       H   -19.41149  -18.56269   15.04208
       O   -18.76821  -18.74596   14.31435
      H1   -17.91334  -18.83282   14.76300
       H    -9.78581  -13.97357   20.11060
       O   -10.04663  -14.77921   19.61901
      H1   -10.54084  -14.42439   18.86234
       H   -12.69643  -14.58372   10.32772
       O   -12.89600  -14.07376   11.08187
      H1   -13.75394  -14.36605   11.43534
       H   -14.32284  -16.37968   17.28381
       O   -13.44388  -16.73641   17.25811
      H1   -13.16243  -16.34782   16.41100
       H   -15.54078  -19.23611   15.80373
       O   -16.15935  -18.80701   15.17570
      H1   -15.77234  -19.10331   14.31776
       H   -18.07631  -13.35348    8.96686
       O   -18.14801  -13.58055    9.91096
      H1   -17.90400  -12.75253   10.39742
       H   -17.20940  -10.06180   16.47898
       O   -16.76210   -9.87740   17.33596
      H1   -17.16529   -9.07006   17.68961
       H    -9.26828  -13.49215    9.30113
       O    -9.01952  -14.40494    9.58308
      H1    -8.31796  -14.63410    8.96535
       H   -17.69835  -15.07146   18.57146
       O   -18.30920  -15.84620   18.30680
      H1   -19.12313  -15.56511   18.74085
       H   -10.09736  -11.17734   12.76184
       O   -11.03398  -11.25799   13.08324
      H1   -11.49356  -11.04305   12.23672
       H   -13.98526  -13.79660    7.32618
       O   -13.09382  -14.09987    7.10165
      H1   -13.26746  -14.84228    6.51694
       H    -4.43355  -14.85800   16.91039
       O    -4.64578  -14.82948   15.95830
      H1    -5.61383  -14.61761   15.90097
       H   -12.44117  -18.63814   10.48974
       O   -12.96898  -17.91169   10.88885
      H1   -13.84350  -18.32459   10.76885
       H    -7.27122  -11.83318   17.57132
       O    -6.65832  -11.42218   18.20408
      H1    -6.16091  -12.20356   18.46067
       H   -16.84424  -17.38076   10.74766
       O   -15.96032  -17.79141   10.95454
      H1   -16.11277  -18.76485   11.12999
       H   -17.58883  -14.77063   13.81187
       O   -16.78615  -14.65135   14.28830
      H1   -16.66021  -15.42824   14.88105
       H   -14.47601   -9.43905   13.16312
       O   -14.38510   -8.80807   13.88474
      H1   -13.59217   -8.24941   13.72355

