177
frame 1 | Written by MDAnalysis XYZWriter (release 2.4.3)
       H     3.39101  -17.89053  -13.45237
       O     3.43066  -18.31912  -14.32154
      H1     3.49515  -19.24561  -14.11026
       H    -2.04796  -15.00362  -10.55048
       O    -2.94689  -15.07655  -10.16940
      H1    -3.33063  -14.19732  -10.12862
       H     7.08107   -8.03989  -14.72751
       O     6.47876   -8.68798  -14.26380
      H1     7.06874   -9.32767  -13.78105
       H     4.37944  -16.36421  -10.07738
       O     4.94327  -16.99947  -10.54049
      H1     5.85630  -16.85221  -10.27430
       H     0.63256  -11.98115   -6.31925
       O    -0.22835  -12.33995   -6.50846
      H1    -0.66289  -12.74792   -5.70409
       H     6.24088   -9.47319  -10.82817
       O     5.81001   -9.07961  -10.01153
      H1     4.96066   -8.65603  -10.22776
       H    -1.27084  -18.69174   -7.41947
       O    -0.87623  -19.16265   -8.20856
      H1    -1.57005  -19.82533   -8.31725
       H     0.39261  -10.54931  -11.54336
       O     1.26277  -10.16127  -11.80497
      H1     1.70632  -10.81535  -12.30791
       H     3.09867  -11.01918   -5.92127
       O     2.15173  -10.90175   -5.84300
      H1     1.92146  -11.06978   -4.89721
       H     4.86328  -15.90145  -15.19586
       O     5.37057  -15.39144  -14.52830
      H1     6.03673  -16.03261  -14.18492
       H     7.09434  -14.19081  -11.99942
       O     6.38378  -13.62658  -12.37342
      H1     6.27033  -14.05675  -13.22243
       H     3.23897  -16.44688  -16.58592
       O     4.12291  -16.73810  -16.44805
      H1     3.97694  -17.54446  -15.85486
       H     5.84543  -14.00107   -5.06470
       O     5.11721  -13.41055   -5.15955
      H1     4.37483  -13.97383   -5.22241
       H     5.53154  -12.16463  -15.34291
       O     5.95797  -12.73733  -16.02962
      H1     5.96113  -13.52873  -15.47031
       H     3.60882   -9.52453   -9.21674
       O     3.36849   -8.56911   -9.12364
      H1     2.95408   -8.32371   -9.98059
       H     2.19980   -8.40438  -12.02948
       O     2.43136   -7.58310  -11.63067
      H1     3.37562   -7.42562  -11.65148
       H     8.12491  -17.55347  -10.11194
       O     8.52678  -16.76863  -10.46246
      H1     8.07770  -16.58094  -11.31420
       H     0.67964  -12.89408   -3.87358
       O     1.34313  -12.25091   -3.66682
      H1     0.86181  -11.62456   -3.12577
       H    -2.47892  -15.48241  -12.62671
       O    -3.03835  -16.11325  -13.10922
      H1    -3.50140  -16.46077  -12.34706
       H     7.04577  -12.36790  -11.02810
       O     7.60045  -12.36981  -10.24752
      H1     7.33095  -11.64637   -9.72229
       H    -0.23311  -15.92936  -13.60313
       O     0.59625  -15.83813  -14.08687
      H1     0.68657  -16.70220  -14.52785
       H     1.39508  -14.91332  -16.47540
       O     1.81798  -15.29044  -17.25778
      H1     2.39378  -14.61538  -17.64660
       H     2.54928  -17.79505  -10.08898
       O     2.10387  -17.01671  -10.45561
      H1     2.59916  -16.70075  -11.25520
       H     7.26526  -13.79276   -9.34377
       O     7.10793  -14.65955   -8.93320
      H1     7.71963  -15.31999   -9.28775
       H     5.35598  -10.53540   -6.04118
       O     4.70983  -11.02517   -6.62718
      H1     4.91334  -11.93747   -6.44236
       H     3.91559  -11.61500   -8.37625
       O     3.34192  -11.35502   -9.09190
      H1     2.41896  -11.13037   -8.70431
       H    -5.18257  -13.36725  -10.00182
       O    -4.44695  -12.74206  -10.01118
      H1    -4.34002  -12.64227   -9.08393
       H     0.64397  -13.79135  -14.67549
       O     1.29334  -13.16876  -15.03432
      H1     0.73132  -12.40002  -15.15476
       H     7.25122  -19.39912   -9.64316
       O     7.75257  -18.88273   -9.03809
      H1     7.12775  -18.41542   -8.51062
       H     2.12431   -8.29318   -7.64664
       O     1.53612   -8.37955   -6.88525
      H1     1.63350   -9.30354   -6.53575
       H    -0.80095  -13.68794  -11.26515
       O    -1.11664  -14.08259  -12.10154
      H1    -1.52321  -13.34662  -12.52373
       H    -0.74816   -9.19283  -14.79802
       O    -1.21749   -8.41573  -14.42961
      H1    -1.05318   -8.44961  -13.46195
       H    -1.99072  -10.49285  -10.91346
       O    -1.14883  -10.51180  -10.39259
      H1    -1.01562  -11.39966  -10.05295
       H     3.88029  -15.42065  -13.43645
       O     3.08171  -15.89379  -13.09910
      H1     2.36301  -15.81625  -13.74357
       H     7.65494   -8.04068   -7.65408
       O     6.86652   -7.51551   -7.71043
      H1     6.37148   -7.98531   -8.36822
       H    -3.05134  -17.12757   -7.39390
       O    -2.35374  -17.25182   -6.68267
      H1    -1.56254  -16.70888   -6.94304
       H     2.42215  -13.55804  -11.16895
       O     2.53571  -13.55622  -10.22743
      H1     2.87853  -12.68182  -10.06571
       H    -1.14555   -9.94452   -8.25689
       O    -1.46728  -10.00309   -7.34049
      H1    -1.10081  -10.80554   -7.02232
       H     5.31215  -10.21991  -14.28495
       O     4.71996  -10.99607  -14.58576
      H1     4.27861  -11.35258  -13.82282
       H     0.46424  -17.21515  -10.43104
       O    -0.46436  -16.98308  -10.22207
      H1    -0.74353  -17.78351   -9.74526
       H    -4.07540   -9.95263  -11.57257
       O    -3.56894  -10.81282  -11.76023
      H1    -4.01084  -11.42445  -11.09910
       H    -2.63662  -18.91521  -12.25174
       O    -2.58688  -18.57387  -11.38492
      H1    -2.07638  -17.77024  -11.31822
       H     6.06020  -10.99996   -7.76575
       O     6.87215  -10.63416   -8.23772
      H1     6.44605  -10.04372   -8.94237
       H     0.87674  -18.92784   -7.44720
       O     1.72833  -18.95230   -6.99874
      H1     2.22011  -18.11669   -7.05278
       H     3.10677  -15.65257   -3.90141
       O     2.67422  -15.33106   -4.65173
      H1     2.05790  -14.70670   -4.29985
       H     1.02813  -15.95496   -7.55388
       O     0.09033  -15.64539   -7.69043
      H1    -0.19932  -16.08384   -8.48737
       H     1.00232  -13.02602   -9.47177
       O     0.11581  -12.69412   -9.33291
      H1    -0.20622  -13.10496   -8.51045
       H     3.82850  -13.81582   -8.73634
       O     4.47426  -13.91498   -8.04048
      H1     5.31298  -14.09740   -8.49777
       H     3.59828  -16.07276   -7.79037
       O     2.99099  -16.59973   -7.23223
      H1     2.95142  -16.00456   -6.48019
       H     0.00682   -7.65034   -7.21654
       O    -0.85591   -7.09846   -7.33097
      H1    -1.47522   -7.44583   -7.97521
       H     4.65473  -12.57044   -3.56309
       O     4.19273  -12.45448   -2.68454
      H1     3.31291  -12.07984   -2.90417
       H    -3.20869  -12.69604  -14.13757
       O    -2.43874  -12.41563  -13.60825
      H1    -2.89758  -11.78333  -12.95689
       H    -2.15396   -8.49413   -9.87899
       O    -2.73944   -8.18579   -9.14329
      H1    -2.68760   -8.80002   -8.42342
       H     8.38739   -9.88312  -11.99052
       O     7.78922  -10.43464  -12.43425
      H1     8.08491  -11.37129  -12.27895
       H     7.94568  -14.07581   -6.59951
       O     8.00021  -14.16873   -5.67730
      H1     8.92770  -14.08798   -5.55626
       H     4.42631  -17.60446   -6.55573
       O     5.11047  -18.30836   -6.56231
      H1     5.82636  -17.79436   -6.17016
       H    -1.18498  -11.83291  -14.91521
       O    -0.55775  -11.23575  -15.35208
      H1    -0.63886  -11.40545  -16.27823
       H     2.48183  -12.75920  -13.59984
       O     3.02025  -12.35048  -12.93608
      H1     3.71122  -12.95198  -12.54213
       H     7.93849  -16.24419  -13.85888
       O     7.33287  -16.51263  -13.18296
      H1     7.35666  -17.46025  -13.22019

