177
frame 6 | Written by MDAnalysis XYZWriter (release 2.4.3)
       H     3.41635   13.19299   16.09209
       O     4.11246   13.42082   16.73997
      H1     4.93636   13.09121   16.26340
       H     8.91317   18.92766   12.55791
       O     8.59219   18.07374   12.29121
      H1     8.04857   17.74547   12.99757
       H     4.55750   11.38093   16.81522
       O     4.38423   10.44046   16.71155
      H1     5.07085   10.03191   17.23756
       H     5.23561   12.25159   14.12105
       O     5.89348   12.14133   14.85958
      H1     5.83479   11.25644   15.20920
       H     3.97403   15.00429   18.06357
       O     3.65013   15.73829   18.54280
      H1     4.48420   16.23096   18.81994
       H    11.00840   19.02874   15.51393
       O    11.22587   18.30105   14.91219
      H1    12.12301   18.03593   15.13138
       H     7.37940   19.11292   15.38139
       O     6.85680   19.63494   14.74932
      H1     5.92032   19.43198   14.92194
       H     3.51671   12.68758   13.02318
       O     4.21810   12.10162   12.76550
      H1     4.08053   11.93796   11.84717
       H     7.68735   15.68770    8.80448
       O     7.20234   14.94127    9.23384
      H1     6.55402   14.71509    8.55105
       H     2.42687   18.30717   13.96688
       O     2.07462   19.19384   13.82885
      H1     2.72073   19.76106   14.36270
       H     7.85725   13.05221   17.62742
       O     8.29665   12.19542   17.47992
      H1     9.21684   12.49233   17.74398
       H    11.78601   11.46133    9.10090
       O    10.92694   11.55373    9.49815
      H1    10.94901   12.42766   10.00112
       H     3.16816   18.79888    7.02753
       O     2.53141   18.11651    7.15188
      H1     1.80603   18.65615    7.61848
       H     4.18009   18.92605    9.66107
       O     5.03940   19.42351    9.56793
      H1     5.40126   19.35364   10.47096
       H     3.92998   16.40485   13.66088
       O     3.06027   16.17203   14.01474
      H1     2.60190   15.78294   13.28463
       H     5.48184   18.14533   12.49758
       O     5.44091   17.29350   12.93969
      H1     5.56562   16.53884   12.27705
       H     6.46946   16.60778   14.19857
       O     7.24462   16.12096   14.60203
      H1     7.12042   15.18087   14.39294
       H     8.98009   19.76173    9.57465
       O     8.81217   18.80943    9.58525
      H1     8.70400   18.55379   10.49456
       H     3.00475   15.16602    6.95276
       O     3.70167   15.79596    7.28536
      H1     3.30748   16.65185    7.11651
       H     9.97432   16.93461   12.36690
       O    10.64029   16.26503   11.91792
      H1    11.56642   16.44738   12.25857
       H     1.02694   14.29148   18.70269
       O     0.20174   14.68557   18.33225
      H1     0.28065   14.98037   17.40259
       H    11.13907   17.32099   10.53838
       O    11.45863   18.02611    9.88775
      H1    10.61873   18.39593    9.56257
       H    10.56766   14.08349   15.07708
       O    11.08845   13.26967   15.32349
      H1    11.76955   13.20071   14.61883
       H     3.98036   11.65753    6.96777
       O     3.06177   11.86858    7.12500
      H1     2.92598   11.69266    8.11462
       H    12.40924   19.21021   17.44779
       O    12.44950   18.44308   17.99370
      H1    11.50249   18.06302   17.97703
       H     9.17482   12.75330   15.05083
       O     8.44292   12.99235   14.53452
      H1     7.63647   12.65353   14.95438
       H     8.27888   17.96544    8.06383
       O     8.08725   17.38437    7.29498
      H1     7.63780   17.95892    6.63658
       H     4.75012   13.49124   10.35983
       O     4.52339   12.63580   10.02966
      H1     4.30649   12.71556    9.12752
       H    -1.47308   18.10239   11.21561
       O    -0.82649   17.64512   10.70906
      H1    -1.21230   17.38222    9.85909
       H    -0.46407   14.81895   15.27188
       O     0.17225   15.43083   15.67968
      H1    -0.30604   16.26147   15.83889
       H    -1.53706   12.53699   14.84721
       O    -0.88177   13.03189   14.36303
      H1    -0.71518   12.50564   13.57810
       H     9.39358   16.44015    6.21394
       O     9.72542   15.83763    5.49476
      H1     8.94715   15.55295    5.01387
       H     0.49602   16.04613   11.53779
       O     1.25947   15.53255   11.82376
      H1     0.99579   14.61503   11.81293
       H     1.80260   16.58646   16.05609
       O     2.02404   17.27814   16.71288
      H1     2.55964   16.89842   17.45605
       H     8.32037   14.63315   18.98618
       O     7.47071   14.93367   19.32745
      H1     7.15170   14.18463   19.86753
       H     2.50659   16.23506   10.86466
       O     3.20679   16.31094   10.22880
      H1     3.01728   16.16413    9.32725
       H     6.04039   11.71416   10.95599
       O     6.71933   11.00501   10.94733
      H1     7.45115   11.40320   11.37392
       H    -2.19582   19.37334   12.87607
       O    -2.74137   18.82000   12.27710
      H1    -3.49987   19.34085   12.18012
       H     1.26766   11.91433   11.97811
       O     0.31705   12.21625   12.10984
      H1     0.01019   12.32359   11.19178
       H     8.75904   12.09510   13.10954
       O     8.93003   11.75924   12.17142
      H1     9.47396   10.98166   12.30789
       H    -0.07109   18.59072    9.11518
       O     0.30184   19.15851    8.43102
      H1    -0.29366   18.92010    7.65596
       H     7.50035   17.91539   19.47078
       O     6.76639   17.55279   18.91198
      H1     6.86932   16.57189   18.96012
       H     7.79745   17.24244   16.11713
       O     8.09928   18.05779   16.41836
      H1     7.61932   18.13775   17.29110
       H     8.27213   11.28447    8.03255
       O     7.49305   10.71861    8.23512
      H1     7.27500   10.92777    9.17520
       H     6.05337   15.04225   10.82615
       O     5.33538   15.09314   11.44132
      H1     4.61290   15.42129   10.94730
       H     5.92556   13.77019    6.34387
       O     6.01927   14.74595    6.30518
      H1     5.22378   15.24209    6.53280
       H    10.42546   16.04987   18.25088
       O    10.09263   16.96928   18.21902
      H1     9.72639   17.07970   17.30082
       H    10.47218   14.50795   11.48724
       O    10.78427   13.62212   11.45427
      H1    10.04120   13.04702   11.61045
       H    13.88496   16.08715   13.12370
       O    13.44238   16.78670   12.55165
      H1    13.72704   16.54306   11.67587
       H     0.71018   19.43086   18.91089
       O     0.98564   19.70580   17.99712
      H1     1.57433   18.98109   17.78022
       H     0.22367   19.17328   13.97885
       O    -0.65709   19.52630   14.10075
      H1    -0.98557   19.27489   14.95753
       H     6.48959    9.23398   13.82819
       O     6.51136    9.13777   12.87952
      H1     6.34547   10.00771   12.48650
       H    12.02554   13.28339   12.65259
       O    12.67785   12.84598   13.20627
      H1    12.59465   11.95230   12.91622
       H     3.14141    9.30556   12.48474
       O     2.62893    9.95645   13.04294
      H1     3.35353   10.52785   13.31223
       H     2.54496   14.51657   14.44802
       O     2.35397   13.56153   14.32902
      H1     1.38205   13.58978   14.44868
       H     0.55716   11.53085    9.31789
       O     1.47234   11.29330    9.64552
      H1     1.34169   10.40938    9.91804
       H     9.05225   15.91048   14.65155
       O     9.95713   15.76895   14.89196
      H1    10.42005   16.44728   14.42579
       H     6.48541   19.13822    5.31862
       O     7.35808   18.77615    5.12124
      H1     7.95915   19.52116    5.14799
       H    10.85301   19.07803   13.50531
       O    10.84345   19.79433   12.83094
      H1    11.76251   20.10752   12.76886

