177
frame 0 | Written by MDAnalysis XYZWriter (release 2.4.3)
       H     8.27692    4.74388   -9.44000
       O     9.27072    4.66314   -9.36631
      H1     9.30855    4.01575   -8.60508
       H     8.89919    7.90888  -11.02213
       O     9.18687    8.54765  -10.34081
      H1     9.20180    8.21462   -9.45389
       H     3.38967    3.06920  -10.86298
       O     4.08866    2.40505  -10.64528
      H1     4.47192    2.68956   -9.79761
       H     0.39929    7.66441   -3.75630
       O     0.49535    7.37677   -4.66973
      H1     0.09844    7.97448   -5.34227
       H     0.88054    3.53161   -8.30953
       O     1.16548    4.48194   -8.10110
      H1     0.33452    4.98713   -8.09328
       H    -0.15768    1.64395   -7.99827
       O     0.64512    1.91258   -8.53220
      H1     0.41658    1.65346   -9.43955
       H     4.08446   12.21206  -12.29233
       O     4.07699   11.86166  -11.42074
      H1     3.16831   11.77026  -11.16060
       H    -0.88250    5.58300  -14.07976
       O    -1.48374    4.93878  -14.50040
      H1    -1.45386    4.21248  -13.80198
       H     3.80373    7.65959   -5.57332
       O     3.23440    8.48061   -5.80091
      H1     2.45258    8.15942   -6.25435
       H    -0.59842    7.28951  -16.55764
       O     0.33769    7.32599  -16.19849
      H1     0.42541    8.27930  -16.09857
       H     0.56350    6.88610  -10.07217
       O     0.23037    6.02115  -10.34305
      H1     1.04888    5.47026  -10.44092
       H     1.04442    2.50522  -14.03565
       O     1.55378    2.41073  -13.21998
      H1     0.92595    2.22378  -12.51132
       H     4.28764    6.36725   -4.02789
       O     4.10038    6.01321   -4.90994
      H1     3.17758    5.69974   -4.91149
       H     3.51021    8.59232  -11.85551
       O     4.24605    8.89700  -11.26562
      H1     4.20851    9.85965  -11.27859
       H     5.57529    3.81255   -7.32618
       O     5.22973    3.24736   -8.03109
      H1     4.63183    2.64713   -7.61328
       H    -0.52365    1.21990  -11.80487
       O    -0.20318    1.82137  -11.18988
      H1    -0.82817    2.55786  -11.26747
       H     6.15018    8.45759  -14.47501
       O     5.84101    8.84784  -15.30382
      H1     6.74405    9.10088  -15.61534
       H     6.06917    0.23548   -9.69814
       O     6.65131   -0.08158  -10.41274
      H1     6.57180    0.65260  -11.02546
       H     5.61341    1.31828  -13.51737
       O     5.40906    0.75792  -14.28002
      H1     6.11992    0.10636  -14.30709
       H     9.16225    6.70743  -13.32139
       O     8.67198    7.40971  -12.88347
      H1     8.83160    8.21394  -13.32281
       H     1.37027    4.49834   -6.38009
       O     1.49186    4.77604   -5.44912
      H1     0.96386    5.60101   -5.38317
       H     3.13009    5.21894  -10.25189
       O     2.61139    4.76522  -10.94538
      H1     2.96645    5.11733  -11.77313
       H    -0.16740   10.65483   -7.58833
       O     0.03453   11.32940   -8.24044
      H1    -0.80995   11.49780   -8.63302
       H    -0.08846    1.09595   -5.05057
       O    -0.16357    0.83648   -5.98455
      H1     0.25696   -0.00889   -5.98515
       H     5.54546    2.47905  -11.63239
       O     6.36628    2.17936  -12.09294
      H1     7.04083    2.87583  -12.09402
       H     6.43762    6.37752   -9.07111
       O     6.53382    5.58757   -9.69434
      H1     6.18346    5.75741  -10.61064
       H    10.29168    7.14355   -7.61679
       O     9.51261    7.07337   -8.17395
      H1     9.41905    6.13088   -8.40029
       H     0.21588    6.16383  -12.11206
       O     0.51937    6.29345  -13.06532
      H1     1.28199    5.73382  -13.33670
       H    -0.25649   -0.54779  -13.53851
       O    -0.79367    0.16542  -13.15551
      H1    -1.54814   -0.21917  -12.64445
       H     1.27479   10.27091  -10.41813
       O     1.46440   11.11787  -10.85130
      H1     1.33400   11.77489  -10.21861
       H     8.81484    4.16740  -12.54489
       O     8.71128    3.51358  -11.82167
      H1     9.26521    3.85636  -11.04867
       H     3.34187    0.56958  -10.88849
       O     2.74373   -0.16973  -11.05170
      H1     2.70527   -0.18760  -12.02980
       H     3.82432    8.87166  -15.26293
       O     2.97905    9.12766  -15.66625
      H1     2.38786    9.05107  -14.91948
       H    -1.88546    6.54031  -10.19502
       O    -2.33116    7.34677  -10.50071
      H1    -1.65110    7.84228  -11.04041
       H     5.62140    5.07163   -5.54459
       O     6.30411    4.74571   -6.12538
      H1     6.89963    4.17833   -5.62336
       H     3.55210    0.05608  -14.24545
       O     2.62241   -0.02180  -14.00620
      H1     2.27295    0.81172  -13.73089
       H    -2.83569    3.03233  -12.39903
       O    -2.18181    3.35283  -11.82058
      H1    -2.68402    4.19075  -11.53026
       H     7.77494    5.51277  -16.33184
       O     7.82376    4.64529  -15.88245
      H1     6.90703    4.54259  -15.57582
       H    -0.26440    9.96237   -5.57871
       O    -0.34971    9.35872   -6.35496
      H1    -1.26370    9.04708   -6.43502
       H     7.85290    8.00581   -6.54069
       O     8.08513    8.20421   -5.62322
      H1     8.60854    8.99981   -5.79018
       H     7.26012    0.93793   -9.01309
       O     7.22955    1.27363   -8.11259
      H1     6.59465    2.02149   -8.14881
       H     5.42909    7.06687   -7.33814
       O     6.12264    7.42055   -7.86375
      H1     5.86203    8.34544   -7.79265
       H     5.68135   10.93687   -8.21916
       O     5.34663   10.14735   -7.68398
      H1     4.51717    9.84103   -8.02432
       H     0.09319    2.29115  -15.68774
       O     0.43956    3.21195  -15.61655
      H1    -0.31424    3.85624  -15.69592
       H     2.96280    0.93660   -6.51873
       O     3.38153    1.41116   -7.25167
      H1     2.64338    1.61259   -7.85922
       H     7.91832   10.27610  -10.96247
       O     7.88925   11.09881  -11.50285
      H1     6.99115   11.50646  -11.47290
       H     3.72964    8.81977   -9.72603
       O     3.42323    8.78219   -8.79856
      H1     3.69464    7.88006   -8.62954
       H    -0.12894   -0.83977   -9.55246
       O     0.42487   -1.56375   -9.72718
      H1     1.10034   -1.25965  -10.33526
       H     3.33586    2.94177   -5.06412
       O     3.84145    2.84073   -4.24924
      H1     3.35625    3.00688   -3.37806
       H     5.18928    5.86202  -15.78238
       O     5.37558    5.41193  -14.92945
      H1     5.89970    5.97257  -14.32620
       H     7.09669    6.91223  -12.24120
       O     6.13262    6.80015  -12.39227
      H1     5.71577    7.59978  -12.10198
       H    -0.78925    9.03835  -13.19155
       O    -1.16633    9.12664  -12.34374
      H1    -1.06240   10.15074  -12.21542
       H    -2.26310    4.87640   -7.35375
       O    -2.40063    4.49289   -8.26017
      H1    -2.93287    3.70981   -8.04294
       H     1.36891    9.12903  -12.52330
       O     1.87788    8.53952  -13.05012
      H1     1.35632    7.75719  -13.04328
       H    -0.02268    8.92514   -8.70718
       O     0.69941    8.61945   -9.27860
      H1     1.53876    8.79299   -8.86346
       H     4.37484    4.80514   -8.44767
       O     3.76684    5.56658   -8.56593
      H1     2.92157    5.16309   -8.32981
       H     2.88206    4.14268  -13.39892
       O     2.99336    5.07373  -13.42017
      H1     3.84392    5.28270  -13.81960
       H    -0.23140    3.68526   -4.93331
       O    -1.12073    3.74995   -4.53453
      H1    -0.88441    4.21190   -3.67906
       H     4.39083   -2.86918   -9.26407
       O     3.84264   -2.62892  -10.00447
      H1     3.36891   -1.80334   -9.75736

