177
frame 5 | Written by MDAnalysis XYZWriter (release 2.4.3)
       H   -16.51632    6.32000    9.25756
       O   -16.62270    6.66544   10.14451
      H1   -17.60337    6.63127   10.38903
       H   -16.96052    5.88079   18.35990
       O   -16.05142    5.72696   18.19709
      H1   -15.56941    6.38822   18.71462
       H   -10.74008    6.66317   12.92568
       O   -11.45094    6.59589   13.63927
      H1   -11.63263    7.45306   14.03509
       H   -16.10602    4.81203    6.71242
       O   -15.50830    4.07896    6.95565
      H1   -15.22757    4.12281    7.89250
       H   -13.37202    3.56533   12.79918
       O   -12.93242    2.88202   12.33256
      H1   -12.25074    2.41710   12.82788
       H   -16.72230   -4.97515   12.85092
       O   -16.08769   -4.29462   13.07863
      H1   -16.35139   -4.06868   13.99145
       H   -17.29853    2.65182    7.23326
       O   -17.97790    2.17860    7.70854
      H1   -18.43288    2.71636    8.34552
       H   -12.60049    1.29568   16.05610
       O   -11.89079    1.93162   15.96689
      H1   -11.39759    1.64542   16.75190
       H   -14.02301   -1.16399   15.72403
       O   -13.12541   -0.97987   15.38395
      H1   -13.10015   -1.72375   14.73848
       H   -15.54812    3.94688   10.23893
       O   -14.93516    4.04571    9.46600
      H1   -14.57644    3.16429    9.43099
       H   -14.16999    4.85104   14.63164
       O   -13.90431    5.05114   13.69692
      H1   -13.06573    5.45164   13.68143
       H   -15.50280    8.28155   10.11985
       O   -14.70669    8.81483    9.96084
      H1   -14.63401    9.42259   10.73165
       H   -19.39635    5.89876   15.48016
       O   -18.82734    5.24254   15.92003
      H1   -18.56137    4.53759   15.37497
       H   -17.12951    9.63415    8.90974
       O   -17.62581    9.31418    8.15547
      H1   -17.92853   10.13924    7.75520
       H   -16.36418   -2.84956   12.05247
       O   -16.44588   -2.01811   11.56613
      H1   -17.40417   -1.91297   11.45953
       H   -18.00052    2.50051   14.31279
       O   -17.81441    3.41041   14.06474
      H1   -17.15175    3.34064   13.40996
       H   -16.69153    6.86659   16.21778
       O   -16.26384    7.45497   15.57583
      H1   -16.16442    6.95554   14.76038
       H   -13.64178   -3.86253   10.42821
       O   -14.59755   -4.14802   10.52596
      H1   -15.17131   -3.40069   10.31988
       H   -16.15542    1.47246   12.58620
       O   -16.41951    2.03514   11.86954
      H1   -16.81642    1.51147   11.19955
       H   -15.43504   10.67991   14.53826
       O   -14.96044    9.87008   14.50689
      H1   -15.49480    9.23024   14.95812
       H    -8.65266    3.80168   11.24565
       O    -8.90310    3.05286   11.84264
      H1    -9.63420    2.69099   11.32154
       H   -17.99257    0.78331    8.99397
       O   -17.94481    0.21065    9.78513
      H1   -17.77259   -0.69946    9.42540
       H   -19.04280   -2.26991   15.37954
       O   -18.42170   -3.01501   15.39641
      H1   -18.56088   -3.55236   16.23956
       H   -12.47765    9.64119   14.50343
       O   -11.90354    9.15628   15.11134
      H1   -12.56770    8.86436   15.79111
       H   -17.58565    8.84343   15.21653
       O   -17.72178    9.81582   15.05966
      H1   -18.29958   10.13900   15.78739
       H   -14.27988   10.25438   12.70897
       O   -13.98696   10.65352   11.85164
      H1   -14.62873   11.30600   11.50647
       H    -8.92444    5.91719   12.55116
       O    -9.34429    6.49323   11.92204
      H1    -9.94146    5.80737   11.55545
       H   -13.48181    2.02807   10.77167
       O   -13.56341    1.53106    9.90530
      H1   -13.49242    0.63691   10.13273
       H   -16.36303   -0.75132   12.77769
       O   -16.14808   -0.17346   13.55984
      H1   -16.00034   -0.82934   14.25557
       H   -14.15066    1.73196   18.12856
       O   -14.10137    0.82205   17.73768
      H1   -14.65073    0.27425   18.39416
       H   -14.27276    6.94084   16.05291
       O   -13.50192    6.94410   16.61820
      H1   -13.16893    6.02379   16.57598
       H   -15.99982    6.64937   11.87297
       O   -15.87472    6.89996   12.79809
      H1   -15.21887    6.23371   13.12624
       H   -17.73433   -1.81268    7.92307
       O   -17.19049   -2.22972    8.61477
      H1   -16.26577   -2.25274    8.28161
       H   -13.84844   -1.12945    9.00585
       O   -13.37284   -1.13939    8.18942
      H1   -12.77282   -1.91965    8.28863
       H   -17.37338    1.28392   18.96694
       O   -17.69348    0.54823   19.56353
      H1   -18.12442   -0.12143   18.97975
       H   -13.20454   -1.54676   11.73664
       O   -13.82017   -1.30523   11.04470
      H1   -14.72863   -1.42078   11.39137
       H   -11.01426    3.95782    9.73833
       O   -11.25742    4.46869   10.54249
      H1   -11.97237    3.97834   10.92004
       H   -15.05372    4.12879   18.55277
       O   -14.24163    3.48588   18.57486
      H1   -13.61995    3.93098   17.96312
       H   -19.92321    8.38184   13.96030
       O   -19.55778    9.01120   13.34838
      H1   -18.79360    9.35963   13.86258
       H   -19.68381   -2.03437    7.02364
       O   -19.10613   -1.28936    7.13019
      H1   -18.70409   -1.23125    6.25355
       H   -12.90458   -3.59630   13.46304
       O   -12.23966   -2.87954   13.33980
      H1   -11.66581   -3.25407   12.65096
       H   -12.74303   -1.18290   17.47375
       O   -12.47977   -1.77688   18.19356
      H1   -12.05052   -2.51318   17.79207
       H   -19.93180    6.22211   11.09564
       O   -19.23795    6.87488   11.13571
      H1   -19.36414    7.29873   12.07110
       H   -17.05923    7.30527    7.56626
       O   -17.07594    6.40924    7.39841
      H1   -18.04426    6.33048    7.32822
       H   -17.82386   10.69854   17.52006
       O   -18.74032   10.46671   17.35271
      H1   -19.15941   11.33347   17.31411
       H   -15.46300   -2.73926   16.58976
       O   -15.70488   -2.43503   15.65374
      H1   -16.63489   -2.58543   15.61923
       H   -19.69564   -1.15837   11.94718
       O   -19.06536   -1.85412   12.14659
      H1   -19.22530   -1.94749   13.10443
       H    -8.57016   -0.45954   13.42260
       O    -8.93582   -0.24977   14.28310
      H1    -9.79639    0.14405   14.11870
       H   -13.86237    7.49897   18.28561
       O   -14.26735    7.62620   19.16956
      H1   -13.70682    7.21914   19.78121
       H   -11.68366    1.81544   10.46934
       O   -10.83389    1.34252   10.70877
      H1   -10.86024    1.04680   11.61435
       H   -15.82003    4.80180   16.47907
       O   -15.56045    4.23647   15.74590
      H1   -16.32208    3.98702   15.18589
       H   -11.80045    3.78115   16.56164
       O   -12.17737    4.52927   17.07479
      H1   -11.87544    4.36927   17.95214
       H   -15.86195    2.65883   16.57968
       O   -16.42966    1.86753   16.74335
      H1   -15.71297    1.24845   16.93110
       H   -17.71229    1.25461   15.77564
       O   -18.23104    0.90537   15.03415
      H1   -17.57432    0.44963   14.47055
       H   -14.48138   -4.31935   17.61513
       O   -14.73001   -3.42523   17.99720
      H1   -13.89839   -3.04416   18.25730
       H   -10.80333    6.40182   18.10386
       O   -10.67805    7.19105   18.68616
      H1   -10.56084    7.91171   18.06691
       H   -13.92854    7.38914    8.67778
       O   -13.54180    6.69644    8.10825
      H1   -13.33503    5.95233    8.71734
       H   -19.87777    4.66946   19.28434
       O   -19.34199    4.09881   18.69100
      H1   -19.35374    4.53405   17.83597
       H   -11.43447    1.32533   14.34503
       O   -11.31839    0.92162   13.43543
      H1   -12.16421    0.49846   13.38411

