177
frame 11 | Written by MDAnalysis XYZWriter (release 2.4.3)
       H    13.68775  -13.78416    3.59253
       O    13.05281  -13.64101    2.86470
      H1    12.43316  -14.40464    2.69657
       H    18.43580  -13.43397   -6.40247
       O    18.38109  -13.44880   -7.39600
      H1    17.98404  -12.63342   -7.75115
       H    19.03330  -15.21064   -7.49783
       O    19.43669  -16.09390   -7.64828
      H1    18.87108  -16.38103   -8.35386
       H    19.34476  -16.75426   -2.30280
       O    18.67807  -16.11927   -2.53055
      H1    18.10414  -16.68949   -3.07670
       H    16.20442  -15.16729    0.34047
       O    16.56470  -14.47807   -0.27180
      H1    16.46355  -14.77725   -1.15668
       H    10.21183  -13.22533   -2.66776
       O     9.77339  -12.35818   -2.62244
      H1    10.33150  -11.72243   -3.13507
       H    10.55307  -14.58584    1.24266
       O    11.04822  -15.18063    1.82382
      H1    11.63796  -15.74162    1.32010
       H    17.85589  -14.17783    0.53064
       O    18.67788  -14.00973    1.00805
      H1    18.48086  -14.07068    1.94647
       H    12.09503  -14.94430   -6.30308
       O    12.02230  -14.97356   -5.32340
      H1    12.79167  -14.48478   -5.04924
       H    17.33950  -10.85702    0.64748
       O    17.05886  -10.23454    1.35711
      H1    16.14423  -10.52417    1.45642
       H    13.17427  -18.31290   -5.87875
       O    12.30325  -18.75312   -5.89620
      H1    11.67546  -18.19267   -6.32425
       H    13.48693  -13.25859    1.35339
       O    13.92929  -12.99682    0.49937
      H1    14.70621  -13.52604    0.50456
       H     9.12150  -16.34895   -1.78267
       O     8.67954  -17.03085   -1.18474
      H1     8.64171  -16.56397   -0.35402
       H    17.28172  -11.06240    3.19430
       O    17.22151  -11.23729    4.17864
      H1    16.70629  -10.48253    4.55198
       H    18.34803  -13.25686    4.17360
       O    18.61237  -14.08794    3.78547
      H1    19.52211  -14.24640    4.03370
       H    10.35588  -18.09467   -1.54441
       O    11.19563  -18.54151   -1.60674
      H1    11.13008  -19.45542   -1.83659
       H    14.97690  -13.25172    5.42426
       O    15.12642  -13.29591    4.45762
      H1    15.72989  -12.52837    4.23220
       H    16.91210  -12.61066   -3.44335
       O    16.71659  -12.19904   -2.60792
      H1    15.77222  -11.92470   -2.56982
       H    13.99499  -11.07638    0.46414
       O    13.95267  -10.19881    0.82046
      H1    13.35960  -10.25886    1.53401
       H    18.17045  -18.13708    1.72774
       O    18.41064  -18.67097    2.50198
      H1    17.70972  -19.29838    2.70232
       H     7.36254  -15.59646    1.84227
       O     8.22202  -16.00425    1.76490
      H1     8.88473  -15.42072    2.15604
       H    11.78334  -12.55565    3.35552
       O    11.05625  -12.01557    3.68249
      H1    11.37666  -11.23482    4.18238
       H    14.98318  -17.07512   -6.46081
       O    14.86293  -17.97307   -6.10042
      H1    15.68241  -18.46584   -6.41955
       H    14.69750  -18.79346   -0.68602
       O    14.68676  -17.81002   -0.78058
      H1    15.13363  -17.47623    0.05913
       H    12.82973  -13.34781   -0.65943
       O    12.19313  -13.50617   -1.41409
      H1    12.12301  -14.47410   -1.59537
       H    18.74298  -18.89643  -10.55649
       O    19.55484  -19.14857  -10.97295
      H1    19.74612  -20.09248  -10.78512
       H    19.32404  -17.03066   -6.18230
       O    19.11434  -17.68657   -5.39327
      H1    19.33186  -17.20386   -4.58877
       H    15.49110  -10.18454   -4.93906
       O    15.89178  -10.90152   -5.41470
      H1    15.54439  -10.78478   -6.33294
       H    10.58899  -17.14856   -8.21976
       O    10.89907  -16.40695   -7.66025
      H1    10.04684  -15.91755   -7.43680
       H    17.97565  -18.87861   -6.27367
       O    17.20651  -19.34387   -6.72277
      H1    17.35840  -20.20659   -6.29623
       H    15.28446  -15.88575   -3.63466
       O    14.95209  -15.08172   -3.19820
      H1    13.98647  -15.21335   -3.05645
       H    15.60374  -14.60702   -6.15085
       O    16.00289  -15.27687   -6.71765
      H1    16.77417  -14.77384   -7.10157
       H    18.44258  -10.89126    5.51784
       O    18.73173  -10.63859    6.38721
      H1    18.95549  -11.47728    6.82849
       H    14.22043  -13.93038    7.42318
       O    14.75268  -13.14358    7.15040
      H1    15.66026  -13.47027    7.19692
       H    12.36516  -16.01518    7.51381
       O    11.61353  -15.51449    7.74098
      H1    11.01349  -15.59191    6.97318
       H    16.87754  -16.06829    4.49810
       O    15.95457  -15.81827    4.17826
      H1    15.99271  -14.85831    4.07055
       H    17.50647  -18.84469    8.54874
       O    18.35591  -18.61108    8.12992
      H1    18.93460  -18.37616    8.87065
       H    10.06110  -16.25815   -4.94115
       O     9.61272  -16.30947   -4.10477
      H1     9.03530  -15.55812   -4.09168
       H    15.04507  -12.46593   -5.16241
       O    14.54286  -13.33513   -5.16273
      H1    14.80867  -13.83469   -4.38255
       H    11.26295  -16.17934   -3.19137
       O    11.89982  -16.01603   -2.49411
      H1    11.91676  -16.92823   -2.10016
       H    19.35810  -17.95078    5.50830
       O    18.51716  -17.63925    5.14128
      H1    18.55750  -18.00640    4.25957
       H    15.41604  -16.19049  -11.53250
       O    15.90927  -15.81168  -10.76040
      H1    16.27545  -16.53604  -10.24383
       H    13.87361  -18.31458    5.42525
       O    14.32478  -18.44438    6.25170
      H1    13.65394  -18.61084    6.96587
       H    16.73069  -16.71761    1.09091
       O    15.93003  -16.32414    1.35844
      H1    15.89636  -16.35987    2.34741
       H    18.71485  -12.36648   -4.39908
       O    18.48736  -13.32780   -4.57459
      H1    19.13968  -13.78111   -4.07574
       H    17.61974  -17.04326    8.56819
       O    16.97489  -16.31186    8.78519
      H1    17.13269  -15.97079    9.68940
       H    15.30971  -16.10190    8.28348
       O    14.56924  -16.04556    7.66056
      H1    14.93282  -16.71704    7.07210
       H    10.73508  -19.64818    5.42260
       O    10.14024  -18.99644    5.83704
      H1    10.57534  -18.74541    6.67519
       H    13.43687  -17.42123    2.77211
       O    13.75842  -17.52967    3.64635
      H1    14.38958  -16.85131    3.76935
       H    13.32688  -17.25873    0.33467
       O    12.75887  -17.09469    1.09072
      H1    11.90796  -17.64494    1.02507
       H    18.11209  -17.02190   -0.72377
       O    17.95630  -17.68678    0.01081
      H1    17.80307  -18.58751   -0.41504
       H    17.60006  -10.76567   -4.69388
       O    18.51772  -10.64916   -4.51568
      H1    18.52110   -9.96825   -3.80134
       H    17.76650   -7.20347   -0.28610
       O    17.05711   -7.83004   -0.42658
      H1    17.16606   -8.52526    0.20179
       H     9.31971  -12.85176    0.35277
       O     9.64075  -13.74557    0.20945
      H1    10.32461  -13.60048   -0.49870
       H     9.88593  -18.66126    0.48253
       O    10.18777  -18.46599    1.36643
      H1     9.43180  -18.18877    1.80826
       H    15.44655  -17.86769   -4.46574
       O    16.04462  -17.78883   -3.69445
      H1    15.45305  -17.88264   -2.88036
       H    12.60178  -12.00095   -2.51890
       O    12.80080  -11.11224   -2.82384
      H1    12.05162  -10.90993   -3.42830
       H    18.10949  -12.03165   -1.29703
       O    18.55569  -11.68974   -0.51402
      H1    18.66798  -12.50487    0.00441
       H    17.13214  -18.80718   -8.94000
       O    17.12834  -18.30682   -9.76402
      H1    16.35084  -18.64664  -10.17369

