177
frame 1 | Written by MDAnalysis XYZWriter (release 2.4.3)
       H    14.63501  -12.81357    4.15199
       O    13.75875  -12.66009    3.66168
      H1    13.24280  -13.47531    3.81306
       H     8.94521  -11.23697   10.89047
       O     9.52818  -11.94522   11.15608
      H1     8.97168  -12.64503   11.55728
       H    11.50897  -18.65333   12.02100
       O    11.98145  -19.22322   11.41982
      H1    11.73411  -18.84189   10.59369
       H     5.52984   -9.65061    8.76683
       O     5.62701   -9.86007    9.72482
      H1     6.57518   -9.79997    9.97514
       H     6.82425  -18.61773   12.30694
       O     7.22875  -19.02448   11.48962
      H1     7.31633  -19.97961   11.58845
       H     9.53336  -12.79685   -0.05726
       O     8.58669  -12.99882    0.10646
      H1     8.17236  -12.14437   -0.16314
       H    11.31032  -15.15302    3.33131
       O    11.59068  -14.71504    4.14551
      H1    11.98705  -15.46944    4.56782
       H     8.50753   -9.67635    6.40418
       O     7.77870   -9.73504    5.75873
      H1     8.33163   -9.76865    4.90937
       H    -0.00856  -16.29803    1.69115
       O     0.94914  -16.37683    1.87183
      H1     1.46401  -15.59035    1.67377
       H     0.39232  -13.42391    5.61078
       O     0.17383  -12.49927    5.87821
      H1     0.98315  -12.18759    6.26447
       H     9.23054  -14.31141    6.30247
       O    10.13057  -14.46885    6.56883
      H1    10.58716  -14.48116    5.70595
       H     8.92416  -15.84666    2.17630
       O     9.67913  -16.06101    2.67546
      H1     9.29395  -16.63384    3.37757
       H     3.75945  -13.99338    1.46338
       O     3.29538  -14.74594    1.90471
      H1     3.79316  -15.59283    1.68636
       H     7.97089  -14.44104   -0.77713
       O     7.55795  -15.30193   -0.64819
      H1     8.32668  -15.89546   -0.40367
       H     8.70829  -18.58929   -0.77739
       O     8.39174  -18.34914    0.11642
      H1     7.45755  -18.11356   -0.05712
       H     5.33888  -13.20813   11.58627
       O     5.66096  -14.14073   11.71805
      H1     5.96021  -14.47051   10.83918
       H    10.15425  -15.85905   13.15652
       O    10.41151  -16.76828   12.94113
      H1     9.86220  -17.30888   13.46753
       H    13.44533  -13.99353    9.51613
       O    13.39631  -13.13654    9.12487
      H1    12.47254  -12.88562    9.05328
       H     5.80513  -11.81606    2.00693
       O     5.64232  -12.53635    2.62549
      H1     5.80702  -13.29045    2.08969
       H     5.67560  -14.41160   -0.88455
       O     5.15451  -13.74267   -0.42478
      H1     4.79874  -13.15672   -1.14234
       H    -0.01686  -14.98943    4.33123
       O     0.52696  -15.22258    5.10536
      H1     1.35200  -14.95328    4.75193
       H     4.66406  -17.62042    2.43721
       O     4.86227  -16.91775    1.86625
      H1     5.61166  -16.30991    2.10128
       H     4.38569  -11.77895    8.43747
       O     3.94608  -12.59237    8.21134
      H1     4.63026  -13.21394    7.78470
       H     7.70859  -14.56132    2.63442
       O     7.08979  -15.09418    2.09110
      H1     7.17030  -14.86506    1.11013
       H     6.89374  -17.50385    8.72962
       O     7.56879  -17.48678    9.46187
      H1     7.30139  -18.01165   10.23619
       H     4.70998   -9.06670    6.58041
       O     5.13135   -9.80917    7.06603
      H1     6.01185   -9.79926    6.71658
       H     4.21728  -17.42705    7.69344
       O     4.37960  -17.36341    8.62214
      H1     3.65071  -16.88780    9.03577
       H     0.06470  -19.29710    8.50836
       O    -0.25392  -18.37256    8.71081
      H1     0.56122  -18.07642    9.10923
       H     9.94620  -18.06662    7.32743
       O     9.20961  -18.67100    7.64130
      H1     8.85595  -18.22435    8.42787
       H     3.94981  -16.68038    5.53172
       O     3.44575  -17.39278    5.94699
      H1     2.50526  -17.22141    5.71421
       H     4.94771  -11.73603    5.74344
       O     4.77998  -12.59811    5.32109
      H1     5.05842  -12.51454    4.42142
       H     7.51122  -12.27816   13.15882
       O     7.77957  -13.16042   12.80798
      H1     7.04957  -13.55502   12.23513
       H     3.05293  -19.03057   12.12913
       O     3.47093  -18.33379   11.61555
      H1     3.99381  -18.88222   10.92530
       H    14.01010  -17.24818    8.58566
       O    13.78980  -17.86558    7.82298
      H1    13.72229  -18.74502    8.27306
       H     0.05467  -17.70812    7.03215
       O     0.50348  -17.68370    6.15113
      H1     0.31712  -16.78643    5.80811
       H    10.53705  -17.20475   -0.59280
       O    10.64726  -16.48360    0.06863
      H1    10.54670  -16.95342    0.84561
       H     4.54033  -11.26459   10.61900
       O     4.22704  -11.83685   11.29222
      H1     3.60341  -12.45167   10.93168
       H    14.61698  -17.88662    4.45196
       O    15.12528  -18.26355    5.17677
      H1    14.50055  -18.24228    5.94091
       H     2.55404  -14.93458   12.85866
       O     1.99208  -14.36724   13.35131
      H1     1.10414  -14.68196   13.27746
       H     2.71303  -11.07348    7.50582
       O     2.00094  -10.73948    6.95674
      H1     2.39709  -10.01563    6.42077
       H     7.93079  -13.51895    4.66337
       O     7.68699  -14.11809    5.40679
      H1     7.34873  -14.89051    4.96366
       H     1.45142  -10.89286    3.77953
       O     2.40769  -10.97649    3.49334
      H1     2.79440  -11.57572    4.10238
       H     2.22707  -15.55324   10.00443
       O     2.00527  -16.49804    9.88923
      H1     2.32816  -17.00460   10.59580
       H     6.18652  -18.16001    6.74567
       O     6.40210  -17.21255    6.58479
      H1     6.87579  -17.18835    5.73721
       H     3.99761  -14.33015    4.80980
       O     3.48012  -15.08014    4.48333
      H1     3.53106  -14.90223    3.54686
       H     1.97333  -17.67157    0.80535
       O     2.65562  -18.26817    0.47755
      H1     3.44548  -17.87437    0.82942
       H    13.67015  -17.33221    2.78689
       O    13.37816  -16.92298    3.66840
      H1    14.18056  -16.27388    3.84944
       H     0.75805  -18.70242    4.50685
       O     0.65114  -18.84693    3.52197
      H1     1.12058  -18.05907    3.08738
       H     6.67176  -15.10680    8.72571
       O     7.24240  -14.87518    9.50960
      H1     7.62435  -15.71172    9.69287
       H     6.01069  -18.27853   14.19502
       O     6.37750  -17.53847   13.63301
      H1     5.66954  -16.87442   13.44801
       H     8.99422  -11.93848    3.24185
       O     8.95211  -12.90128    3.21066
      H1     9.14631  -13.16086    2.29458
       H     1.69239  -13.65196   10.16418
       O     2.62312  -13.92333   10.22663
      H1     3.11465  -13.56282    9.42970
       H     8.37768  -17.99929    4.64170
       O     8.36910  -17.00338    4.80320
      H1     8.76958  -16.82487    5.65012
       H    10.94162  -16.13562    7.07525
       O    11.23266  -17.03471    6.93340
      H1    12.04953  -17.18672    7.35416
       H     4.70226  -15.34434   12.57381
       O     4.19105  -16.01912   13.05021
      H1     4.13090  -16.89259   12.55702
       H    -0.61656  -16.44027   10.14295
       O    -1.15575  -15.68171   10.37080
      H1    -0.73908  -14.79624   10.30565
       H     6.05397  -14.28872    6.73766
       O     5.52456  -14.85931    7.27718
      H1     5.90505  -15.75484    7.13406
       H    10.17044  -12.17744    9.41360
       O    10.67319  -12.23645    8.58360
      H1    10.36912  -12.96676    8.02675
       H     9.93956   -9.13627    8.45353
       O     9.37494   -9.79217    8.06165
      H1     9.83528  -10.62474    8.18943

