177
frame 7 | Written by MDAnalysis XYZWriter (release 2.4.3)
       H     7.87347   -0.82570    0.11050
       O     8.27423   -1.72705    0.01850
      H1     9.08249   -1.69153    0.61148
       H     7.06583    0.12387    2.49690
       O     7.08838   -0.67320    3.03890
      H1     6.95821   -1.41374    2.42150
       H     3.62646   -5.37751   -6.33359
       O     3.23838   -4.47882   -6.41579
      H1     3.22577   -4.45430   -7.37656
       H     5.21026   -2.28738   -2.43355
       O     4.66374   -2.76986   -3.01929
      H1     4.87942   -3.73932   -2.96648
       H    11.23439   -2.34719   -0.50035
       O    11.38114   -2.32400   -1.45724
      H1    12.26816   -2.56839   -1.63023
       H     7.39650    3.75842    3.85207
       O     7.73368    2.86008    3.86845
      H1     7.18301    2.47948    4.58589
       H     7.28249   -2.75498    0.93915
       O     6.92198   -3.20677    1.69327
      H1     6.03892   -3.50550    1.52031
       H    -0.12700    2.56763   -5.32107
       O     0.41569    1.77578   -5.54054
      H1    -0.19203    1.32448   -6.18918
       H     3.10470    4.92642    0.94067
       O     3.41137    3.94409    0.87730
      H1     2.67073    3.52874    0.44102
       H    -0.58383   -5.14300    0.94336
       O    -0.60079   -4.49468    0.24792
      H1     0.24600   -4.54591   -0.19004
       H     1.41691    1.19224   -0.67672
       O     1.82279    1.86694   -0.08301
      H1     2.73047    1.51398   -0.09495
       H     6.66059   -6.33957    1.19881
       O     7.29326   -5.93956    0.57473
      H1     7.29855   -4.95936    0.70482
       H    10.65399    3.92522   -2.85657
       O    10.68193    4.88064   -3.08256
      H1    11.22119    5.29547   -2.35559
       H     1.85413   -2.10855   -0.66988
       O     2.42903   -2.84007   -0.98652
      H1     2.39376   -2.58569   -1.90792
       H     1.96931   -4.41348   -1.38815
       O     1.94694   -5.37584   -1.46243
      H1     1.50998   -5.61914   -2.28645
       H     9.57875   -2.24195    4.25129
       O     9.57224   -1.22713    4.14151
      H1     8.64292   -1.03112    3.85288
       H     3.33229   -4.44211    1.50991
       O     2.73116   -4.75129    2.20277
      H1     2.08577   -4.02024    2.32650
       H     7.07520    3.28831    0.30284
       O     7.13250    3.88829   -0.44683
      H1     6.23501    4.15503   -0.80776
       H     8.23070    1.00080   -6.30727
       O     7.44083    0.78635   -6.79649
      H1     7.49674    1.51035   -7.47647
       H     5.90153    5.82919   -3.78467
       O     5.32269    5.42782   -4.48499
      H1     4.55236    4.98597   -4.01406
       H     2.78609   -2.68046   -4.05161
       O     1.91206   -2.44034   -3.82750
      H1     1.54277   -2.16358   -4.67412
       H     6.68877    0.09151   -2.19642
       O     6.07414   -0.58441   -1.75671
      H1     5.55271   -0.09725   -1.12728
       H    10.06990   -1.89275    2.31354
       O    10.39452   -2.17197    1.42322
      H1    10.65311   -3.07824    1.51142
       H     2.23744    3.83675   -3.30709
       O     2.20613    2.93639   -2.97588
      H1     2.54778    3.00227   -2.07947
       H     3.42173   -0.85943    3.85932
       O     3.39111   -0.62754    2.94207
      H1     2.49997   -0.97755    2.72509
       H     7.75510    1.39486    1.13981
       O     6.91287    1.53499    1.64122
      H1     7.25795    1.94980    2.45410
       H    10.65744    1.43533   -2.34004
       O    10.20040    2.33193   -2.25053
      H1     9.27496    2.18466   -2.53027
       H     6.67535   -2.70601   -5.08700
       O     7.58697   -2.92956   -4.77228
      H1     7.81585   -2.26732   -4.09848
       H    12.74119    0.57126   -1.35293
       O    12.15117    0.40971   -2.05230
      H1    11.99456   -0.54422   -2.00489
       H    12.07374    3.12060    0.99009
       O    11.61409    2.55642    1.64112
      H1    11.29309    3.17062    2.31922
       H     5.97180    0.82183   -4.94762
       O     5.14168    0.76732   -4.47228
      H1     5.35945    0.89214   -3.56010
       H     7.11647   -5.18151    3.47566
       O     7.71716   -5.07784    4.23482
      H1     8.31860   -5.78798    4.26008
       H    13.42774    1.99822   -4.76199
       O    12.91035    1.16899   -4.59255
      H1    12.86440    0.89761   -3.67042
       H     6.49624    3.88043   -6.28438
       O     6.42703    4.37041   -7.14469
      H1     7.12677    4.98152   -7.14138
       H    -0.78396    2.51009   -1.31941
       O    -0.60694    1.86664   -2.00424
      H1     0.18764    2.19321   -2.51642
       H     7.45487    2.26565   -3.24225
       O     7.30254    1.85659   -2.40164
      H1     7.02543    2.50606   -1.77622
       H     3.85819    2.18006   -5.44216
       O     3.24582    2.48374   -6.12074
      H1     2.37667    2.23330   -5.73307
       H     3.96178   -6.08631   -3.25273
       O     4.79570   -5.57968   -3.29580
      H1     5.29666   -5.89036   -4.05599
       H     9.50097   -4.08934   -3.61877
       O    10.43502   -4.34729   -3.57977
      H1    10.82800   -4.20175   -2.77650
       H     6.84786   -2.10870    5.88501
       O     6.46126   -1.27283    5.54115
      H1     6.29630   -1.29512    4.58631
       H     7.55084   -0.84442   -7.21365
       O     7.66206   -1.71413   -7.59846
      H1     8.37363   -2.09182   -7.05047
       H    11.20283    2.09296   -5.47968
       O    10.41212    2.08142   -5.94405
      H1    10.75715    2.56048   -6.70438
       H     3.93340   -8.38090   -0.52457
       O     3.92535   -7.45413   -0.35443
      H1     3.38942   -6.89368   -0.94080
       H    11.74295   -3.03486   -4.15717
       O    12.73783   -2.99235   -4.16310
      H1    12.89312   -2.39712   -4.92706
       H     4.82778   -3.26621   -5.72646
       O     5.13497   -2.32837   -5.70396
      H1     4.90677   -1.99732   -4.78560
       H     4.36371    4.33008   -0.54862
       O     4.60632    4.69966   -1.42716
      H1     4.22850    5.60730   -1.34526
       H     4.09144   -4.07555   -0.48664
       O     4.79697   -4.19221    0.18216
      H1     5.12702   -5.03351    0.17344
       H     9.98825   -7.44006    0.08593
       O     9.65170   -7.28010    0.96360
      H1     8.88753   -6.70680    0.78314
       H     1.75458    1.87543    2.03501
       O     1.69487    1.45842    2.90396
      H1     2.53102    0.89183    2.96262
       H     9.66027   -1.71212   -2.68087
       O     8.78373   -1.40293   -2.88868
      H1     8.32280   -1.48603   -2.04348
       H     8.78436    3.49685   -5.04616
       O     7.92582    3.46553   -4.56512
      H1     7.54137    4.33077   -4.75223
       H     5.04378    0.93120    1.08497
       O     4.36742    0.54129    0.53162
      H1     4.07895   -0.14441    1.13334
       H     6.39300   -7.47346   -3.25833
       O     6.41299   -8.47189   -3.27799
      H1     5.70129   -8.76295   -2.73032
       H     6.53939   -5.59970   -6.10943
       O     6.79803   -5.73356   -5.22331
      H1     7.30236   -4.90071   -5.10336
       H     0.03347   -1.24918   -0.04490
       O     0.50583   -0.80256   -0.72612
      H1    -0.22410   -0.70415   -1.35621
       H     4.18035   -0.55511   -6.56363
       O     3.91565    0.00978   -7.26035
      H1     3.68650    0.85591   -6.85332
       H     8.22304    5.02339    0.85053
       O     8.62215    5.74642    1.35285
      H1     9.47183    5.41404    1.69534
       H     2.65014   -0.94292   -8.06501
       O     1.99712   -1.63894   -8.41154
      H1     1.79371   -1.28643   -9.32411
       H     9.51701    1.67308   -0.64105
       O     9.34920    1.28077    0.22935
      H1    10.15722    1.41389    0.80372

