177
frame 2 | Written by MDAnalysis XYZWriter (release 2.4.3)
       H   -19.25924   -1.08876   -4.91814
       O   -19.03767   -0.22795   -5.27671
      H1   -18.46450    0.13546   -4.60888
       H   -14.34845    1.70378   -6.05364
       O   -13.66562    1.20845   -5.53835
      H1   -13.35945    0.53050   -6.19967
       H   -10.04231   -0.60578   -9.64651
       O   -10.61233    0.11224   -9.98083
      H1   -11.12333   -0.29939  -10.72089
       H   -16.95272   -5.96342   -2.45806
       O   -17.79934   -6.28747   -2.08374
      H1   -18.46354   -6.04307   -2.66072
       H   -17.15489   -2.04756  -12.27287
       O   -16.64163   -1.25521  -12.64868
      H1   -16.37038   -1.56087  -13.53040
       H   -18.17957    0.37040  -12.48459
       O   -18.38910    1.11785  -13.07355
      H1   -18.04743    1.00849  -13.96961
       H   -17.44545   -5.06781   -6.94641
       O   -17.94736   -5.44245   -6.21744
      H1   -18.20209   -4.69900   -5.67653
       H   -15.83529    0.29906  -13.27752
       O   -15.34036    1.13346  -13.12224
      H1   -14.96689    1.46878  -13.97197
       H   -18.53699    4.58928   -9.99612
       O   -19.10622    3.91536  -10.33503
      H1   -19.00509    3.09087   -9.79517
       H   -18.94766   -3.22657   -0.33890
       O   -18.30177   -3.39153    0.41832
      H1   -18.26523   -2.51725    0.79260
       H   -15.15243   -1.22294  -11.19703
       O   -14.35462   -1.55527  -10.72489
      H1   -14.33256   -2.45095  -11.17438
       H   -12.15873   -6.21373  -10.49207
       O   -12.68516   -5.46357  -10.17176
      H1   -12.05503   -4.73963   -9.95982
       H   -14.85889   -5.79100   -3.22134
       O   -15.60936   -5.66100   -3.81710
      H1   -15.62156   -6.43709   -4.37800
       H   -16.39010   -4.20401  -11.16117
       O   -17.30253   -4.44347  -10.94623
      H1   -17.19816   -4.74199  -10.02485
       H   -16.43634   -0.98790   -7.99129
       O   -15.77562   -1.70605   -8.13940
      H1   -15.48593   -1.72959   -9.06032
       H   -15.94093   -4.06496   -4.13423
       O   -16.29809   -3.16159   -3.91268
      H1   -15.54356   -2.55728   -4.20959
       H   -16.11423    2.29648  -12.05220
       O   -16.52744    3.03467  -11.50739
      H1   -17.39043    3.04586  -11.93645
       H   -15.42770   -5.54532   -8.18444
       O   -16.20600   -5.04243   -8.35533
      H1   -16.01745   -4.13864   -8.18553
       H   -13.53578   -0.64870   -8.01723
       O   -12.55579   -0.59988   -7.96468
      H1   -12.29634   -0.29795   -8.84864
       H   -12.72591   -1.26711  -11.43826
       O   -11.94054   -1.01516  -11.94019
      H1   -12.32468   -0.55140  -12.71586
       H   -16.18909   -1.38973   -0.00147
       O   -16.42632   -0.90328    0.81959
      H1   -15.73952   -1.21309    1.46723
       H   -13.56742    2.81990   -9.19048
       O   -12.84594    3.38925   -9.49889
      H1   -13.09099    4.30763   -9.59131
       H   -19.66190   -2.94735   -8.16667
       O   -18.79517   -2.86189   -8.55260
      H1   -18.46418   -2.01404   -8.18534
       H   -15.98590    5.14545   -4.57752
       O   -15.99869    5.85628   -3.93529
      H1   -15.06391    6.08702   -3.62147
       H   -18.86588   -7.73123   -8.15862
       O   -18.18091   -8.31900   -7.85688
      H1   -18.17913   -8.25201   -6.88507
       H   -18.55970   -2.99599   -6.05223
       O   -18.76694   -2.95914   -5.08270
      H1   -17.92015   -2.96881   -4.61424
       H   -14.42821    7.06056   -9.18648
       O   -15.30863    7.40132   -8.90637
      H1   -15.92883    6.86040   -9.45228
       H   -13.58962    5.89415   -6.53331
       O   -13.46475    4.91337   -6.65564
      H1   -12.78996    4.93145   -7.34645
       H   -11.46003    3.28090  -10.66289
       O   -10.69066    3.39341  -11.23544
      H1   -10.72220    4.32997  -11.61866
       H   -16.50353    3.54989   -6.71258
       O   -15.67223    3.10974   -6.69651
      H1   -14.99748    3.80071   -6.63502
       H   -13.69458   -1.39487   -3.85886
       O   -14.25060   -1.28126   -4.63450
      H1   -14.18958   -0.35188   -4.92808
       H   -19.95441   -1.24110  -10.51275
       O   -19.11346   -1.57106  -10.80563
      H1   -18.84035   -2.17821  -10.08444
       H   -15.55920   -5.24155  -15.07430
       O   -16.15748   -4.90635  -14.39785
      H1   -16.29706   -5.45467  -13.57370
       H   -17.94242    6.97470   -7.32420
       O   -17.11981    6.97067   -6.83941
      H1   -16.44448    6.99088   -7.52263
       H   -16.06750   -8.49502   -5.04403
       O   -15.37711   -7.97488   -5.52327
      H1   -15.44535   -8.32019   -6.40041
       H   -13.18734   -6.08653   -8.57808
       O   -13.66783   -6.31903   -7.77950
      H1   -13.28450   -5.71568   -7.07786
       H   -19.13855   -2.16548  -15.16317
       O   -18.71867   -2.12603  -15.96158
      H1   -18.89851   -1.20231  -16.24067
       H   -18.24211   -0.15627   -6.63827
       O   -17.93417   -0.35188   -7.60714
      H1   -18.37342    0.23256   -8.22473
       H   -19.06267    4.53599  -12.35206
       O   -19.18236    5.19891  -13.03937
      H1   -19.97512    4.89426  -13.33512
       H   -11.18537    2.22347   -1.37485
       O   -12.11178    2.41029   -1.62142
      H1   -12.06730    2.67303   -2.60023
       H   -18.44452    5.45509   -0.79590
       O   -17.49984    5.47180   -1.09973
      H1   -17.48719    5.74107   -1.99946
       H   -12.04538   -4.61735   -4.56324
       O   -12.01961   -4.62329   -3.59127
      H1   -11.62986   -3.82053   -3.31469
       H   -15.44057    1.98146   -9.88600
       O   -14.93724    1.78567   -9.07036
      H1   -15.37182    2.17268   -8.32444
       H   -16.80821    5.25330  -10.71157
       O   -17.16289    5.79699  -10.00117
      H1   -17.64863    6.51162  -10.57526
       H   -15.23739    4.80880  -13.26854
       O   -14.36332    4.32585  -13.34145
      H1   -14.37019    3.76274  -12.55110
       H   -15.74874   -0.70277  -15.84539
       O   -16.10895   -1.45187  -15.28878
      H1   -16.83334   -1.87528  -15.76114
       H   -10.70741   -2.84144   -9.02679
       O   -11.68303   -3.07717   -9.03609
      H1   -12.06625   -2.26862   -8.61493
       H   -18.02946   -6.74477  -12.77712
       O   -17.16860   -6.54070  -12.39060
      H1   -17.29954   -5.71377  -11.91438
       H   -12.87471    2.79094   -4.84650
       O   -12.74708    3.42660   -4.14955
      H1   -13.42069    4.12775   -4.36099
       H   -16.36743   -2.67859   -2.07351
       O   -16.27596   -2.82146   -1.11277
      H1   -17.10410   -3.10145   -0.69832
       H   -19.18367   -7.84409   -4.91121
       O   -18.25174   -7.88175   -5.04495
      H1   -18.07086   -6.97267   -5.41413
       H   -17.75461    5.34624   -5.86482
       O   -17.81673    4.35785   -5.87477
      H1   -18.72560    4.09396   -6.20336
       H   -12.74465    0.58653   -2.01434
       O   -13.17534   -0.25249   -2.15993
      H1   -12.58155   -0.90809   -1.83329
       H   -14.63059    1.30521   -3.47270
       O   -15.21661    1.57639   -2.75302
      H1   -14.75002    1.32267   -1.97154
       H   -17.09116    3.10517   -0.87604
       O   -17.86530    2.62257   -0.57967
      H1   -17.74868    1.74003   -0.95182
       H   -16.88717    1.76787   -3.49266
       O   -17.79852    1.93273   -3.85570
      H1   -17.60898    2.45906   -4.61246
       H   -11.05094    0.49950   -6.81834
       O   -10.56565    1.01764   -6.16260
      H1    -9.82707    0.42386   -5.92466
       H   -12.49965   -3.80162   -6.75669
       O   -12.04106   -4.50957   -6.25951
      H1   -11.12173   -4.54181   -6.67607
       H   -14.64178   -4.58317  -12.93981
       O   -14.67270   -4.32078  -12.01910
      H1   -13.91921   -4.74918  -11.57241

