177
frame 4 | Written by MDAnalysis XYZWriter (release 2.4.3)
       H     8.99794   -1.58653   -0.58750
       O     8.47513   -2.25656   -1.01400
      H1     9.11552   -2.99176   -1.17162
       H     5.45933   -1.72345    3.01804
       O     5.40856   -0.91055    2.55936
      H1     6.24373   -0.41774    2.68334
       H    17.40016    3.99726    6.00461
       O    17.31795    3.46117    6.76700
      H1    16.35429    3.36515    6.84458
       H    11.73496   -1.98249    0.03945
       O    11.65942   -2.10233   -0.96491
      H1    12.54283   -2.12559   -1.28691
       H     7.42810    3.66068    4.27942
       O     8.06470    2.91364    4.34147
      H1     7.73352    2.45596    5.12770
       H    13.07414   -5.04824    3.93908
       O    13.79696   -5.25087    4.67174
      H1    14.47967   -5.73427    4.20194
       H    13.19066    4.19478    2.04396
       O    13.80009    4.45916    1.33608
      H1    14.56604    4.79211    1.79525
       H    13.77499    3.13010    8.85334
       O    14.38608    3.82771    8.50408
      H1    13.94119    4.66255    8.65417
       H    10.70506   -3.88242    6.87364
       O    11.63366   -4.24009    6.79878
      H1    11.82313   -4.13621    5.86748
       H    13.08190   -3.98216    7.82823
       O    14.10909   -3.99258    7.89788
      H1    14.36224   -3.36142    7.17577
       H    14.48445    4.47938    5.70827
       O    14.64730    3.69482    5.14084
      H1    13.76312    3.69025    4.67002
       H     5.92640    5.27207    3.88853
       O     5.64459    4.62396    4.55676
      H1     5.73723    4.99335    5.47074
       H    12.50957    4.73958    4.14229
       O    12.41429    3.86476    3.79586
      H1    11.59931    3.48918    4.21030
       H    10.24092   -1.85151    3.44638
       O     9.85948   -1.95453    4.31586
      H1     8.89538   -1.76536    4.24082
       H     9.22551    8.19181    4.82046
       O     8.95668    7.24854    4.68145
      H1     9.31083    7.00162    3.86715
       H    14.46319   -1.34002    8.86257
       O    15.07063   -1.55948    9.58830
      H1    15.69905   -2.16214    9.11110
       H    17.18575    1.15540    1.42260
       O    17.51416    1.70111    0.76160
      H1    18.51417    1.63271    0.76028
       H    11.93914   -3.94383   -0.56647
       O    11.68908   -4.89664   -0.46132
      H1    12.30606   -5.40243   -1.08846
       H    14.28045   -3.68762    5.24785
       O    14.52817   -2.79607    5.57128
      H1    15.45149   -2.67830    5.31108
       H    11.52505    7.19581    7.28126
       O    11.58971    8.00397    6.76660
      H1    10.76495    8.10017    6.30779
       H    14.41360    0.24226    0.42161
       O    14.00388    0.99753   -0.02959
      H1    14.72007    1.50015   -0.42739
       H    15.79664    0.81208    3.37138
       O    16.48622    0.36476    2.87816
      H1    15.96461   -0.25757    2.30071
       H    12.13977   -1.96220    2.29713
       O    11.39168   -2.06539    1.70227
      H1    11.18590   -3.01984    1.97644
       H    17.13597   -0.92244    4.06029
       O    17.24725   -1.85169    4.25614
      H1    17.73360   -1.96837    5.05893
       H    13.40203    0.37259    8.15735
       O    13.47919   -0.44378    7.65167
      H1    13.64155   -0.11734    6.78700
       H    10.37326    4.81157    1.39166
       O    10.18036    4.05949    0.78907
      H1    10.86054    4.20233    0.16176
       H    17.25238    0.01061    7.21106
       O    16.91705    0.24731    8.09466
      H1    16.57257   -0.55472    8.52407
       H     7.28618    0.34551    6.38017
       O     7.39524    1.27846    6.57581
      H1     8.20844    1.39845    7.08062
       H    15.59254    6.76717    6.51618
       O    15.78570    6.84452    5.53704
      H1    14.90924    6.79794    5.14831
       H     8.58219    0.07879    1.91050
       O     8.02873    0.27117    2.70249
      H1     8.46817    0.99501    3.10262
       H    10.23051    0.81889   -2.16732
       O     9.51675    1.51418   -2.13103
      H1     8.74365    1.09730   -2.50673
       H    19.13444    0.34535    6.18119
       O    18.33137    0.69729    5.79001
      H1    18.19134    1.52499    6.29923
       H    12.68682    0.48177   -1.17957
       O    12.03792    0.45649   -1.89825
      H1    11.63091   -0.46000   -1.88560
       H    11.62531   -5.14811    2.24143
       O    11.59026   -4.52220    2.98383
      H1    10.74509   -4.68674    3.47472
       H    12.05289    1.43583    1.27193
       O    11.30876    1.50144    1.87697
      H1    10.68114    2.12925    1.47914
       H     8.42554   -5.42724    4.02343
       O     9.23010   -5.16858    4.46003
      H1     9.65712   -5.97885    4.48911
       H    13.72550   -1.77903    4.49794
       O    13.23818   -1.41769    3.72211
      H1    13.01151   -0.48348    3.87333
       H    12.98003    7.04292    4.29342
       O    13.13193    6.42729    5.06911
      H1    12.54253    6.85569    5.72293
       H     9.72858    0.24526    8.36683
       O     9.25715    0.96118    8.88479
      H1     8.67963    0.47530    9.47547
       H     5.78589    1.55222    7.43887
       O     4.87926    1.94825    7.46466
      H1     4.91582    2.47462    8.25603
       H    11.50200   -0.63656    7.31269
       O    10.56771   -0.80633    7.52978
      H1    10.35826   -1.74127    7.48832
       H    14.97807   -1.98709    0.90136
       O    14.62893   -1.19278    1.27694
      H1    14.33639   -1.41760    2.14070
       H    11.99964   -0.26112   11.36104
       O    11.72560    0.64333   11.35510
      H1    10.94246    0.63048   11.88447
       H     7.79482   -2.36779    6.01891
       O     7.23825   -1.78670    5.44019
      H1     6.57442   -2.34877    5.03456
       H    11.67440    6.40803    9.50473
       O    12.07148    6.04734    8.70090
      H1    11.59862    5.20143    8.63147
       H    17.32829    3.34016    2.10869
       O    17.10175    4.27183    2.13202
      H1    17.34569    4.56955    3.02931
       H    10.79384    3.26486    7.29844
       O    10.81350    3.58818    8.18541
      H1    10.13741    3.04363    8.63952
       H    15.63202    1.19314    6.13847
       O    14.96688    1.07471    5.41338
      H1    14.82152    2.00525    5.33142
       H     9.91977    7.09181    1.50003
       O    10.28055    6.48376    2.17456
      H1    11.13999    6.93615    2.48762
       H    11.36428   -5.64427    7.67749
       O    11.29491   -6.52003    8.16509
      H1    11.32519   -6.18517    9.11938
       H     8.44085   -3.72769    7.64847
       O     8.95873   -3.35768    6.90448
      H1     8.82797   -3.92403    6.16333
       H    11.05878   -0.20278    4.77949
       O    11.54382    0.68139    4.67230
      H1    11.31446    0.91193    3.75048
       H    12.49443   -2.26368   10.50564
       O    12.82957   -1.85310   11.30701
      H1    13.83691   -1.87094   11.25380
       H    12.18900    2.61233    8.75654
       O    12.74297    1.90767    9.04349
      H1    12.40375    1.39175    9.79715
       H     9.04982    3.63446   10.60132
       O     9.46736    2.85824   11.11885
      H1     9.73601    2.11901   10.52951
       H     9.81395   -4.03259    9.88768
       O    10.70105   -3.74087   10.19343
      H1    10.41947   -3.38593   11.00016
       H     6.85789    4.60824    0.76348
       O     7.60411    5.17777    1.11161
      H1     8.27759    4.48205    1.05516
       H    10.83421    2.15668    5.31419
       O    10.53762    3.08485    5.51952
      H1     9.68967    3.14153    5.07128
       H     9.24057    0.95558   -0.29439
       O     9.37766    0.29150    0.38187
      H1    10.08592    0.60294    0.92542

