177
frame 7 | Written by MDAnalysis XYZWriter (release 2.4.3)
       H    -6.56208   10.19022  -18.22778
       O    -7.17024   10.84512  -18.69507
      H1    -7.26876   11.50930  -18.03592
       H    -6.05513    5.62417  -18.06354
       O    -6.23218    6.19025  -17.28781
      H1    -5.35726    6.23634  -16.82313
       H   -10.49784    9.25895  -12.02893
       O   -10.10930    8.83162  -12.76499
      H1   -10.19301    7.87245  -12.57757
       H   -11.08577   -0.51897  -10.75667
       O   -10.64999    0.30562  -10.70609
      H1   -10.60964    0.60394  -11.61969
       H    -9.44819    8.92807  -16.80850
       O    -8.91242    9.70000  -16.68504
      H1    -8.50200   10.01433  -17.53544
       H    -6.56917    0.75653  -15.66022
       O    -6.62197    1.45307  -14.97150
      H1    -6.95858    2.18420  -15.48899
       H    -3.76554   -2.11042  -18.19776
       O    -3.30310   -2.54000  -17.41354
      H1    -3.73294   -2.05619  -16.67322
       H   -13.37979   -0.08346  -16.02306
       O   -14.30337   -0.33037  -16.22766
      H1   -14.76426    0.47847  -15.95383
       H    -1.01739    4.76279  -13.72775
       O    -1.77765    5.30978  -13.54756
      H1    -1.91931    5.38404  -12.61837
       H    -3.44760    7.65181  -10.75568
       O    -4.03827    6.98291  -11.07944
      H1    -4.33451    7.27676  -11.92729
       H   -10.16842    5.22104  -18.88920
       O   -10.79819    5.15212  -18.12470
      H1   -10.62186    5.99301  -17.71561
       H    -6.53114   12.16900  -15.99145
       O    -5.86067   11.50309  -15.71313
      H1    -6.22357   10.59662  -15.59959
       H   -11.27240    7.47479  -16.31351
       O   -10.57321    7.67686  -17.04366
      H1   -11.08864    8.28610  -17.62773
       H    -5.91107    8.04211  -17.75808
       O    -5.55651    8.94785  -17.98507
      H1    -5.37793    9.39169  -17.14642
       H    -6.17970    7.27910  -14.27699
       O    -5.86459    6.74166  -13.55258
      H1    -5.08144    6.32296  -14.00204
       H    -2.71387    7.69344  -17.77005
       O    -2.60968    8.04583  -16.89830
      H1    -2.93203    9.00928  -16.99867
       H    -4.57651   -0.10117  -15.50957
       O    -4.79374   -1.05275  -15.49726
      H1    -5.29778   -1.27473  -14.65186
       H   -11.07276    5.58999  -12.82522
       O   -10.43508    6.17140  -13.25791
      H1    -9.62257    5.68487  -13.34268
       H   -13.28805   -2.76888  -13.97754
       O   -12.41729   -2.36251  -13.89648
      H1   -12.49042   -1.40455  -13.96625
       H   -12.33976    5.13832  -11.19736
       O   -12.09457    4.56346  -11.92119
      H1   -12.95446    4.28160  -12.31828
       H    -7.19440    0.52180  -11.09392
       O    -7.63144   -0.33252  -11.05248
      H1    -8.55238   -0.05157  -10.98000
       H    -7.23905    3.58710   -9.15895
       O    -6.30115    3.36487   -8.99964
      H1    -6.10529    3.82968   -8.16087
       H    -7.38436   -3.18773  -18.06118
       O    -7.65411   -3.35112  -19.00569
      H1    -7.09436   -4.12151  -19.28719
       H    -2.49460    1.83954  -19.26675
       O    -3.46881    1.82769  -19.32657
      H1    -3.70767    2.58929  -18.79382
       H    -7.37850    9.88014  -11.76437
       O    -7.60455    9.77949  -12.68905
      H1    -8.53506    9.41268  -12.76291
       H   -11.02344    3.21820  -12.07678
       O   -10.13878    2.83257  -12.32705
      H1    -9.66947    3.54560  -12.75304
       H   -10.98259    9.87674  -14.26854
       O   -11.33533   10.29599  -15.10113
      H1   -10.60609   10.16569  -15.71772
       H    -9.43813    3.02711  -10.53983
       O    -9.14378    3.02056   -9.62843
      H1    -9.23535    2.11022   -9.31433
       H   -13.60635    1.73162  -18.98576
       O   -13.41189    0.86699  -19.27741
      H1   -13.94514    0.27588  -18.69658
       H    -7.29525   -2.75199  -13.27774
       O    -6.70624   -2.01767  -13.36810
      H1    -6.93448   -1.44122  -12.63020
       H    -9.75951   -2.32413  -16.26673
       O    -9.28906   -2.95596  -15.76343
      H1    -9.72264   -3.01337  -14.92553
       H   -11.03623    2.87917  -16.89440
       O   -10.23432    2.42300  -16.69201
      H1   -10.47074    1.71860  -16.06915
       H    -0.91407    7.62108  -16.58439
       O     0.07551    7.52627  -16.52095
      H1     0.34844    7.07991  -15.72367
       H    -9.70574    0.02664  -19.35365
       O    -9.29746    0.84899  -19.04980
      H1    -9.73467    1.11481  -18.21111
       H    -8.11257    0.05169  -18.22237
       O    -7.44091   -0.34031  -17.59725
      H1    -6.98322   -1.07995  -17.93489
       H    -3.19897    4.00561  -11.36981
       O    -2.56103    4.66878  -11.05422
      H1    -3.01961    5.44159  -10.74944
       H   -14.82747    3.42647  -19.16578
       O   -13.96978    3.36791  -18.88546
      H1   -13.43950    3.99018  -19.41980
       H    -2.63831    1.16553  -13.07943
       O    -1.90152    1.19468  -13.66216
      H1    -1.55183    0.26752  -13.58300
       H    -1.55307    4.07502  -16.74352
       O    -0.57457    3.99927  -16.74042
      H1    -0.18513    3.92745  -15.83733
       H    -8.50820    0.21368  -13.78016
       O    -9.32104    0.53382  -13.45118
      H1    -9.22807    1.39285  -13.04703
       H    -3.50936    6.80943  -15.56265
       O    -3.81037    6.04823  -15.03437
      H1    -2.99805    5.77220  -14.51786
       H    -3.63129    1.96004  -10.62519
       O    -3.62504    2.21832  -11.55539
      H1    -4.58110    2.27691  -11.56495
       H    -7.52316    4.74840  -16.57140
       O    -7.54781    3.85787  -16.15909
      H1    -8.42101    3.46223  -16.29324
       H    -2.72760    0.59634  -16.67834
       O    -3.24160    1.16001  -16.06974
      H1    -2.71740    1.20642  -15.22825
       H    -6.73669    9.22818  -14.29301
       O    -6.64455    9.00786  -15.23365
      H1    -7.58182    9.03812  -15.58350
       H    -3.34840    2.80682  -16.58945
       O    -3.27564    3.71523  -16.95111
      H1    -3.79746    4.36654  -16.48368
       H    -5.48470    7.33405   -9.69747
       O    -5.95947    7.71658   -8.93379
      H1    -5.25651    8.21493   -8.43036
       H    -0.78254   -0.58911  -17.16706
       O    -1.57465   -0.35430  -17.60112
      H1    -2.26168   -0.98961  -17.55942
       H   -11.56220   -1.23032  -17.75965
       O   -11.54242   -1.55672  -16.85089
      H1   -12.16655   -2.28329  -16.87181
       H   -14.21833    4.84109  -17.53635
       O   -14.32290    5.77872  -17.24724
      H1   -13.78612    5.99675  -16.45508
       H    -5.73847    1.07410  -19.47700
       O    -6.29217    1.84251  -19.71162
      H1    -7.20500    1.58084  -19.57573
       H    -1.85120    5.79135  -19.36221
       O    -0.99029    6.04083  -19.11487
      H1    -0.69031    5.43977  -18.44331
       H   -11.32064   -0.48226  -15.55926
       O   -11.41447    0.34327  -15.05929
      H1   -10.77732    0.17950  -14.33873
       H    -3.14715    8.79202  -13.56981
       O    -3.92069    9.13440  -14.01627
      H1    -4.38088    8.33597  -14.31814
       H    -5.80218   -0.13519   -9.55280
       O    -4.89983    0.05237   -9.85545
      H1    -4.71360   -0.65401  -10.42633
       H    -7.48122   -2.86650  -16.02693
       O    -6.62372   -3.17955  -16.35683
      H1    -5.96159   -2.38168  -16.18472
       H   -12.67920    7.37457  -14.84635
       O   -12.31081    6.55766  -15.30067
      H1   -11.66445    6.31562  -14.62910
       H    -6.37095    3.13983  -10.74824
       O    -6.35841    2.73745  -11.61290
      H1    -6.57416    3.40856  -12.23813
       H    -7.71861    4.87957  -14.62546
       O    -7.94677    5.07135  -13.71368
      H1    -7.20448    5.69239  -13.41495

