177
frame 4 | Written by MDAnalysis XYZWriter (release 2.4.3)
       H     2.62114   17.74721  -10.07413
       O     3.40490   17.19014  -10.27142
      H1     3.58950   16.66638   -9.44271
       H     3.64909   17.62748  -14.81546
       O     4.33826   17.69455  -15.44921
      H1     4.01571   17.94661  -16.32361
       H     6.34915   20.18304  -14.82726
       O     5.45313   19.89441  -14.58669
      H1     5.30345   18.99038  -14.87207
       H     6.78375   19.40497   -3.19245
       O     7.38143   19.27536   -3.94703
      H1     7.16634   18.37861   -4.22909
       H     7.87670    9.26026  -12.55114
       O     8.20807   10.10641  -12.44731
      H1     8.49536   10.06651  -11.50722
       H     9.70002   14.35068  -12.62363
       O     9.22519   14.75617  -13.42620
      H1     8.71694   14.06127  -13.87372
       H     1.74062   11.53366   -5.54095
       O     2.61896   11.26470   -5.93737
      H1     3.05583   12.01055   -6.37290
       H     3.34977   18.68895   -3.63036
       O     3.34571   19.29834   -2.83098
      H1     2.43396   19.65040   -2.91053
       H     7.82585   15.90481  -13.01345
       O     7.23843   16.67327  -12.98054
      H1     7.70701   17.51052  -13.15194
       H     0.55232   16.62755  -12.76479
       O     0.64461   16.08825  -11.94275
      H1     0.41394   16.72740  -11.25689
       H     2.02410   12.19977  -13.27684
       O     1.80790   12.08789  -12.32627
      H1     0.81868   12.16554  -12.35588
       H     7.08246   12.82349   -7.41364
       O     7.60605   12.69739   -6.60061
      H1     7.70406   11.75592   -6.49811
       H     3.10527   15.38387  -14.77067
       O     2.47295   15.47137  -15.52792
      H1     3.03309   15.04339  -16.21566
       H     7.90231    9.35820   -5.91460
       O     7.37925   10.09021   -5.64076
      H1     6.47994   10.02860   -6.03826
       H     5.29422   15.85367  -16.04853
       O     5.66096   15.08899  -16.53891
      H1     5.02014   14.94872  -17.27378
       H    -0.34484   19.19473  -10.44701
       O    -0.37962   18.94051   -9.53169
      H1    -1.27296   18.94191   -9.15229
       H    -1.20132   17.89265   -5.22666
       O    -0.38714   17.33778   -5.08819
      H1     0.18352   17.97567   -4.62406
       H    13.21917   17.52983  -10.22734
       O    13.61959   16.67255  -10.00301
      H1    13.28089   15.98651  -10.63103
       H    -0.85643   13.73278  -13.26923
       O    -0.97998   13.92839  -12.37459
      H1    -0.43374   14.65755  -12.12646
       H    11.40028   12.54797  -11.52699
       O    10.77150   13.12195  -11.96396
      H1    10.54577   12.57534  -12.74546
       H     9.96919   17.44697  -14.81616
       O    10.32230   16.61772  -15.12985
      H1     9.80293   15.91291  -14.63985
       H    11.78996   17.43204   -6.66254
       O    12.37688   17.54778   -7.42465
      H1    12.62499   16.64119   -7.55135
       H     3.40273    9.23177  -11.65268
       O     4.31990    9.12971  -11.51931
      H1     4.68057   10.07469  -11.51803
       H     9.34751   14.83876   -9.03129
       O     8.91426   15.68291   -8.79188
      H1     9.57679   16.31569   -9.11648
       H     5.58687   14.45170   -3.54779
       O     5.86954   15.21813   -3.05201
      H1     5.97985   15.89068   -3.72262
       H     5.93841   16.03603   -8.86538
       O     6.35525   16.23007   -9.73906
      H1     7.30182   16.00882   -9.70437
       H     2.62483   16.93043   -2.38890
       O     2.95255   16.11499   -2.77064
      H1     3.88953   15.99953   -2.50729
       H     7.87569   12.59187  -15.64166
       O     7.86963   13.56112  -15.58459
      H1     7.05725   13.94256  -16.02338
       H     1.19381   14.67514   -8.01848
       O     0.95892   14.39302   -8.91508
      H1     1.74861   14.55270   -9.48240
       H     5.21393   17.08733  -12.71780
       O     4.28034   17.23721  -12.73163
      H1     3.96721   17.15381  -11.79894
       H     1.45570   16.96427  -14.64647
       O     0.74035   17.62086  -14.51991
      H1     1.21978   18.37358  -14.90494
       H     3.37268   16.20619   -7.24044
       O     4.15151   15.87364   -7.70446
      H1     4.21941   14.87884   -7.47867
       H     6.25726   18.09076  -10.88565
       O     6.13771   19.03679  -11.07908
      H1     5.43276   19.03624  -11.75238
       H     7.89995   18.46493   -7.77631
       O     7.95257   17.70533   -7.19679
      H1     8.20452   16.93350   -7.71531
       H    12.72806   11.57123   -8.18375
       O    11.88748   11.09886   -8.23146
      H1    11.25921   11.85036   -8.33895
       H     9.40569   13.13938   -7.67974
       O    10.18794   13.26304   -8.17233
      H1    10.70630   13.86821   -7.61255
       H     3.31583   10.56152   -4.30607
       O     3.69692   10.09867   -3.58731
      H1     2.99682    9.83683   -3.01489
       H     0.33667   11.26380   -8.38324
       O    -0.31923   11.89620   -8.73984
      H1     0.15545   12.68751   -8.95422
       H     5.95863   14.85938  -10.57019
       O     5.46108   14.12880  -11.03735
      H1     4.53061   14.28146  -10.94102
       H     4.21859   12.69966   -3.73977
       O     5.06482   12.84511   -4.21372
      H1     5.75238   12.59780   -3.59837
       H    10.78902   16.26445   -4.70107
       O    10.99005   15.51112   -4.19461
      H1    10.18593   15.03468   -4.00683
       H     4.95007    9.44468   -7.94318
       O     5.11383   10.32900   -7.55613
      H1     4.45087   10.61062   -6.94662
       H     6.54926   11.41370  -12.55110
       O     5.61495   11.61582  -12.46547
      H1     5.60565   12.57344  -12.22444
       H     9.76487   13.28178   -2.49638
       O     9.07161   13.74718   -2.98305
      H1     8.71481   14.27806   -2.29150
       H     2.81549   17.38548   -5.74938
       O     3.48773   17.45111   -5.03601
      H1     3.35052   16.73936   -4.42347
       H    -0.05158   18.99408  -12.93359
       O     0.32437   19.34195  -12.15283
      H1     1.16188   19.71207  -12.49043
       H     2.26817   13.74794  -11.43604
       O     2.75694   14.44392  -10.99208
      H1     2.40366   15.26244  -11.31204
       H     1.29825   18.07947   -6.68917
       O     2.10327   17.92613   -7.22556
      H1     2.39535   18.90014   -7.32762
       H     5.33273   17.03541   -5.50960
       O     6.18820   16.92098   -5.09981
      H1     6.80015   16.98387   -5.85719
       H     2.41678   14.32917   -3.00827
       O     2.17843   13.68670   -3.66959
      H1     2.35248   14.30915   -4.41096
       H    11.15950   17.57831   -9.14246
       O    10.55400   17.73779   -9.86403
      H1    10.84387   18.54983  -10.24715
       H     4.53944   13.24687   -6.16184
       O     4.23426   13.17548   -7.06029
      H1     5.01479   13.07331   -7.63628
       H     0.77398   15.74078   -5.94804
       O     1.38707   15.03717   -6.20975
      H1     0.90362   14.27106   -5.99331
       H    10.67864   18.74523   -4.54994
       O    10.69346   18.07723   -5.21844
      H1     9.82975   18.13318   -5.66287
       H     5.66350   12.90669   -9.85140
       O     6.10955   12.60635   -9.01575
      H1     5.77968   11.76681   -8.76692
       H    12.21176   14.20722  -12.10830
       O    13.01177   14.79816  -12.08388
      H1    12.92512   15.55628  -12.71661
       H     0.26580    9.70267   -6.94724
       O     1.03664    9.80944   -7.50646
      H1     1.66869   10.29435   -6.93007
       H    -0.26915   15.61524   -8.74698
       O    -0.81765   16.34945   -8.34973
      H1    -0.43755   17.16244   -8.72032
       H    12.81328   14.32218   -6.57265
       O    11.91663   14.70797   -6.60410
      H1    11.64938   14.91566   -5.68034

