177
frame 12 | Written by MDAnalysis XYZWriter (release 2.4.3)
       H    12.81485  -13.44670    2.96033
       O    12.14721  -13.10785    2.36810
      H1    11.32551  -13.57165    2.54176
       H     8.04730  -12.83424    5.93768
       O     8.63393  -13.54090    6.16162
      H1     8.18840  -13.98053    6.93825
       H     5.16165   -7.87066    1.93327
       O     5.18873   -7.60297    0.98249
      H1     5.18937   -8.46103    0.49837
       H     2.58341  -10.76303    1.52317
       O     2.42539  -10.55711    0.54611
      H1     3.23653  -10.76881    0.03642
       H    10.96237  -13.01388   -3.48512
       O    10.15273  -12.58303   -3.68161
      H1    10.31000  -11.83176   -4.29233
       H     9.51498  -14.93355    1.86752
       O     9.65776  -15.51031    2.61055
      H1    10.40073  -16.03771    2.22908
       H     8.34597   -9.65791    6.78948
       O     7.85942   -9.34358    6.06006
      H1     8.52039   -9.26665    5.34098
       H    14.28149   -8.63588    2.48617
       O    13.79060   -8.16971    1.80169
      H1    14.45111   -7.62032    1.46748
       H    13.62799   -9.23646   -1.52836
       O    13.27026   -8.72368   -2.34342
      H1    13.58102   -9.24071   -3.04478
       H    17.54756  -10.24912    0.01922
       O    16.96659   -9.57945    0.40010
      H1    16.12787   -9.79371   -0.06574
       H     5.76089   -8.49212    3.91766
       O     5.20608   -7.70271    3.94488
      H1     5.73417   -6.91228    3.70100
       H     5.67478   -7.24039    5.66888
       O     5.95906   -7.03834    6.58707
      H1     6.72610   -7.70127    6.55978
       H    13.45392  -13.05046    0.58760
       O    13.97348  -12.65887   -0.09380
      H1    14.87466  -13.05068   -0.12058
       H     9.74844  -14.75698    5.48722
       O    10.35625  -15.48628    5.24773
      H1    10.37345  -15.33071    4.29299
       H     8.22951  -16.82085    0.13678
       O     8.55009  -16.53905   -0.72322
      H1     7.69887  -16.64116   -1.21173
       H     8.61603  -13.27348   -4.01613
       O     7.95945  -13.90486   -4.39716
      H1     8.04616  -13.85197   -5.36441
       H    16.42740  -10.74030    1.88329
       O    16.16668  -11.12241    2.75665
      H1    16.08515  -10.31807    3.26150
       H     9.49545   -9.26657   -4.76643
       O    10.04872  -10.07922   -4.76772
      H1    10.46115   -9.90926   -5.65273
       H     6.47613   -6.32092    0.62644
       O     6.78260   -5.48052    0.25732
      H1     7.73365   -5.42835    0.21767
       H     9.26206   -5.27316    3.66774
       O     9.74862   -4.47778    3.94579
      H1    10.63920   -4.57420    3.48848
       H    14.55818  -13.43777    4.83874
       O    14.59267  -13.67666    3.89265
      H1    15.02925  -12.92671    3.45850
       H    13.02942   -8.00420    3.73040
       O    12.46484   -8.29795    4.45156
      H1    13.10656   -8.69367    5.05103
       H     6.47500  -11.06887    1.98918
       O     7.11332  -11.60013    1.46092
      H1     7.73921  -10.95706    1.12690
       H     2.49241  -11.75921    3.20076
       O     3.04202  -10.99195    2.98948
      H1     2.34325  -10.34680    3.23342
       H    13.80803  -10.80461   -0.34433
       O    14.15311   -9.89147   -0.22355
      H1    13.85910   -9.62473    0.60042
       H     6.84689  -16.84962    1.39518
       O     7.57133  -17.41490    1.72196
      H1     8.27447  -16.84527    2.05598
       H     5.78404   -4.83060    3.53354
       O     6.47843   -5.43574    3.13136
      H1     6.52873   -5.14656    2.24955
       H    11.81786  -11.36178    2.80781
       O    11.51626  -10.43833    2.85303
      H1    11.83402   -9.99134    3.64084
       H     8.97647  -10.52008   -1.82405
       O     9.02158  -11.44111   -1.54899
      H1     9.47985  -11.78408   -2.33773
       H    12.45988   -5.95024   -1.67874
       O    13.21817   -5.36280   -1.44430
      H1    13.74881   -5.82060   -0.78548
       H    12.85281  -13.39974   -1.19905
       O    12.19319  -13.75511   -1.87299
      H1    12.04370  -14.67284   -1.60415
       H    12.37319   -3.62556    1.95701
       O    12.27669   -4.58286    2.16657
      H1    12.09621   -4.93100    1.27230
       H    11.96321   -8.16683    1.40180
       O    11.09120   -8.03101    1.13455
      H1    10.70964   -8.95223    0.83065
       H     5.71981  -12.99902   -1.34053
       O     5.19981  -12.82827   -0.52633
      H1     5.86095  -13.00930    0.14110
       H     9.99059   -2.27106    1.54624
       O     9.85319   -2.55975    0.65752
      H1     9.77554   -3.54798    0.66549
       H    14.95533   -7.72907   -2.24616
       O    15.62422   -7.11243   -2.57987
      H1    16.31258   -6.95077   -1.89606
       H     7.50851  -10.93299    5.42058
       O     7.25390  -11.74151    4.86924
      H1     8.01609  -11.90502    4.27836
       H     8.61585  -12.22670    2.42047
       O     9.18748  -12.36659    3.16605
      H1     9.86986  -11.71661    3.11876
       H     6.07294  -13.74207   -4.02180
       O     5.22799  -14.06932   -3.49918
      H1     5.36851  -14.93452   -3.11414
       H    11.65170   -7.73402   -2.28961
       O    11.06558   -6.95023   -2.25452
      H1    10.74587   -6.78928   -3.14335
       H    10.09040   -6.13616   -0.81670
       O     9.92773   -5.55066   -0.04632
      H1    10.17691   -6.12029    0.68292
       H     5.51254  -12.92121    5.51479
       O     4.56948  -13.10495    5.36700
      H1     4.22748  -13.56260    6.18422
       H     9.82846   -9.06538    3.34159
       O     9.59977   -8.57280    4.17021
      H1    10.43554   -8.47188    4.63094
       H    12.57945   -6.24415    5.10541
       O    12.86770   -5.30877    5.28392
      H1    13.06894   -4.98521    4.35502
       H    10.87483  -15.36722   -4.60160
       O    10.25647  -15.42302   -3.87375
      H1     9.45065  -14.91202   -4.04092
       H    16.12814   -6.34657    0.30649
       O    15.14550   -6.16358    0.45250
      H1    15.07192   -5.25434    0.80691
       H     6.22482   -6.07397   -1.52573
       O     5.84735   -6.26112   -2.39293
      H1     6.17785   -7.05733   -2.72227
       H    10.84677  -16.07064   -2.31709
       O    11.54754  -16.42821   -1.68877
      H1    11.13306  -17.28477   -1.40453
       H     5.15079  -14.43329    4.51794
       O     5.47521  -15.28377    4.09622
      H1     6.17626  -15.63042    4.60793
       H     4.71192  -10.73706    3.21836
       O     5.59240  -10.31322    3.09241
      H1     6.19001  -10.70068    3.72542
       H     5.34839  -10.39539   -1.19366
       O     4.74435   -9.73271   -0.78239
      H1     4.29339   -9.33821   -1.54433
       H     9.46719  -10.92118    0.08149
       O     9.63720  -10.37334    0.85474
      H1    10.33548  -10.69077    1.39870
       H     8.67159   -8.69841   -0.15207
       O     8.02582   -8.64095   -0.84921
      H1     7.19123   -8.75033   -0.41067
       H     9.68704  -13.25396   -0.33357
       O     9.23283  -13.93429    0.16166
      H1     9.29117  -14.75580   -0.32680
       H     8.05609   -8.01809   -3.72902
       O     7.48238   -8.66158   -4.11258
      H1     7.20234   -9.25085   -3.46505
       H    13.07097  -10.60923   -5.27547
       O    13.34801  -11.03332   -4.42255
      H1    13.56522  -11.98261   -4.56933
       H     9.56314   -6.36056   -5.36846
       O     9.23693   -6.29828   -4.44088
      H1     8.37492   -5.86580   -4.48805
       H    12.10232  -11.82963    8.53285
       O    12.13870  -11.42253    7.63630
      H1    12.73650  -11.91563    7.05985
       H     7.48723  -11.22597   -2.20450
       O     6.71058  -10.77488   -2.60621
      H1     6.40241  -11.15937   -3.44741

