177
frame 2 | Written by MDAnalysis XYZWriter (release 2.4.3)
       H    17.23890  -11.64064   -5.45374
       O    16.50252  -11.30132   -5.97360
      H1    16.41726  -10.31872   -5.93775
       H     6.20978   -8.21611  -13.16509
       O     5.97101   -9.04377  -12.65540
      H1     6.83872   -9.42358  -12.58396
       H    18.48055   -8.60274   -8.58533
       O    18.00159   -9.29008   -8.13776
      H1    17.46063   -8.84702   -7.46885
       H     6.95665   -6.08392  -14.42445
       O     7.09238   -6.66754  -13.64538
      H1     7.82234   -6.25762  -13.15949
       H    11.07290   -7.64209  -16.68718
       O    10.96069   -8.05815  -17.55861
      H1    10.50350   -7.38712  -18.11959
       H    10.21491   -8.65604  -10.71000
       O     9.43449   -8.16159  -10.51501
      H1     9.31574   -7.61751  -11.30469
       H    10.73308   -5.90542  -10.49807
       O    11.38668   -6.07494   -9.84617
      H1    11.38175   -7.02476   -9.61659
       H     7.71106   -8.25082   -9.94050
       O     6.89816   -8.54059   -9.44071
      H1     6.12857   -8.14423   -9.93012
       H     7.73549  -13.73320  -12.41753
       O     6.78148  -13.78330  -12.59554
      H1     6.64348  -14.72587  -12.47999
       H    14.80025  -11.53190   -5.01390
       O    14.12999  -11.86559   -4.40235
      H1    13.87665  -11.05502   -3.93733
       H    14.02549   -5.03453  -13.10036
       O    14.23052   -4.65160  -13.95144
      H1    13.42180   -4.70637  -14.38731
       H    11.26144   -3.92815  -15.27934
       O    11.77408   -4.73354  -15.42385
      H1    11.25179   -5.43153  -15.06174
       H     9.97010  -10.23889  -13.88741
       O    10.10220  -10.24633  -14.89206
      H1     9.23469  -10.38810  -15.28548
       H     6.20936  -12.91044  -10.59371
       O     6.60265  -13.01715   -9.68800
      H1     6.15898  -12.28258   -9.15316
       H    11.61575  -12.24611   -8.94724
       O    10.72976  -12.63652   -8.87013
      H1    10.82337  -13.60776   -8.87622
       H    13.47939  -11.71217  -10.85480
       O    13.28005  -11.25495  -10.05286
      H1    13.85567  -10.49851   -9.93665
       H    10.45142   -3.10649  -11.94778
       O    10.55094   -3.41814  -12.83595
      H1    10.20599   -2.71381  -13.37725
       H    10.67729  -10.43193   -5.97382
       O    10.90380   -9.50114   -5.84822
      H1    10.38763   -9.05985   -6.51689
       H    14.03418  -12.49867  -12.85862
       O    13.66241  -12.89790  -12.07291
      H1    14.37498  -13.31359  -11.59469
       H    12.53457   -8.68874  -17.51207
       O    13.32790   -9.27116  -17.56456
      H1    13.49082   -9.35376  -18.48524
       H     8.33028  -11.34494   -7.28799
       O     9.21208  -11.56172   -7.01265
      H1     9.66109  -11.85781   -7.87038
       H    12.21944  -14.61067   -6.22762
       O    12.34933  -15.41567   -6.66391
      H1    11.67463  -15.55340   -7.33878
       H    12.47768   -8.66852   -5.53863
       O    13.28699   -8.13826   -5.49328
      H1    13.55378   -8.34474   -4.58382
       H    12.24742   -9.38217   -8.58927
       O    12.07394   -8.43698   -8.64629
      H1    12.93043   -8.04506   -8.58895
       H    10.56352   -4.93115   -8.60453
       O    10.04517   -4.33305   -7.96205
      H1     9.22788   -4.80750   -7.78850
       H    14.91979   -4.03674   -9.08092
       O    14.23196   -4.32826   -8.43404
      H1    13.77278   -3.54686   -8.01725
       H    13.70311   -7.26851   -7.08229
       O    14.29750   -7.04011   -7.84604
      H1    14.17900   -6.11290   -8.01153
       H    11.39782  -15.93499   -9.25206
       O    10.60794  -15.55460   -8.84066
      H1     9.82080  -15.83494   -9.29374
       H    16.58652   -6.29635   -8.06040
       O    17.08831   -5.85142   -7.36298
      H1    16.76598   -6.23150   -6.53872
       H     8.08661   -7.65891   -6.72906
       O     7.21554   -7.36313   -6.67098
      H1     6.89845   -7.48007   -7.57494
       H    15.06230  -13.63484   -8.43077
       O    14.33101  -13.64199   -8.96374
      H1    14.17504  -12.78318   -9.35539
       H     7.62261   -8.93983  -17.46235
       O     8.36989   -9.56167  -17.30162
      H1     9.13336   -9.03644  -17.11190
       H    12.20059   -9.72891  -11.03294
       O    11.57650   -9.14413  -11.51401
      H1    12.17648   -8.55958  -12.04184
       H     6.06873  -10.69639   -7.20565
       O     6.62980  -10.98787   -7.94515
      H1     6.69687  -10.24234   -8.52586
       H    15.51698   -8.94298  -14.92968
       O    15.16289   -9.40172  -14.11280
      H1    14.80763  -10.26777  -14.45121
       H    13.53965  -12.10226  -14.96278
       O    14.33608  -12.00624  -14.48785
      H1    15.07379  -12.49107  -14.87624
       H    17.37705   -6.65702  -10.27078
       O    16.45568   -6.84362  -10.22220
      H1    16.43916   -7.81338  -10.12579
       H    13.48802   -7.23169  -12.24122
       O    13.25896   -7.77502  -12.98313
      H1    13.92799   -8.40540  -13.24281
       H    10.11401  -15.74602  -13.12503
       O     9.35595  -15.89416  -13.65215
      H1     9.61250  -15.66219  -14.60661
       H    20.26793  -10.67039  -13.31550
       O    19.64383   -9.90026  -13.13498
      H1    18.82694  -10.27516  -12.77914
       H    11.91459   -7.66234  -14.56009
       O    11.02380   -7.51720  -14.94181
      H1    10.64647   -8.32490  -14.58120
       H    14.47939   -6.38565  -10.76182
       O    13.73088   -5.95412  -11.17411
      H1    12.88320   -5.96471  -10.66647
       H    14.89319   -8.37656  -17.06747
       O    15.83903   -8.26837  -16.78372
      H1    15.85095   -7.38546  -16.28655
       H    16.63361   -9.74459   -9.45759
       O    16.01616   -9.62226  -10.15779
      H1    16.46443   -9.94417  -10.97021
       H    16.95491   -5.20166  -15.76918
       O    16.16835   -5.72158  -15.79111
      H1    15.54289   -5.34818  -15.15107
       H    11.96348  -15.23660  -11.61007
       O    11.70443  -14.93191  -12.48852
      H1    12.21273  -14.13614  -12.69037
       H    10.22720  -13.69188  -12.07818
       O     9.38958  -13.31759  -11.72602
      H1     9.64375  -12.67575  -11.02192
       H    15.49393   -8.09268   -5.99466
       O    16.26359   -8.69295   -6.06111
      H1    16.89790   -8.29836   -5.42369
       H    17.18070  -13.03793  -11.08066
       O    16.37430  -13.10868  -11.65413
      H1    16.76499  -13.44485  -12.46580
       H     9.49994   -8.11425   -8.70558
       O     9.36772   -8.42365   -7.84390
      H1     8.71508   -9.16407   -7.72829
       H    11.32860  -11.03401  -15.79144
       O    12.16416  -11.46358  -16.22379
      H1    12.52310  -10.74624  -16.71156
       H    12.65119   -5.45115   -6.42050
       O    12.24975   -5.19881   -5.58032
      H1    11.31841   -5.05998   -5.86638
       H     9.07289   -9.98371  -11.64206
       O     8.70642  -10.54798  -12.40356
      H1     8.59215  -11.44896  -12.07507
       H     9.72326   -5.00652  -12.30339
       O     9.09197   -5.77912  -12.02252
      H1     8.63736   -5.27852  -11.29716
       H     8.04039  -14.54962   -6.92151
       O     8.33934  -14.15298   -6.10501
      H1     8.67718  -13.22246   -6.42404
       H    16.33282   -4.33805  -10.73481
       O    15.86592   -3.58745  -10.38330
      H1    15.00151   -3.51899  -10.80008
       H    16.82172  -11.45078  -12.33767
       O    16.97119  -10.53548  -12.51628
      H1    16.50881  -10.25701  -13.27360
       H     8.78868  -10.99900   -5.17431
       O     8.65264  -10.97832   -4.21046
      H1     9.01198  -11.83643   -3.99649
       H    13.56888  -15.03105   -9.56929
       O    13.20390  -15.84707   -9.94403
      H1    13.78632  -16.16522  -10.68372

