177
frame 5 | Written by MDAnalysis XYZWriter (release 2.4.3)
       H     9.27335  -12.09307    8.24962
       O     9.35659  -13.03550    8.11296
      H1     8.68420  -13.59859    8.49566
       H    11.98825   -6.16027   10.26801
       O    11.01167   -6.11326   10.20834
      H1    10.68622   -5.30879   10.66910
       H     5.86741  -10.07690    8.64667
       O     6.27789  -10.68983    9.22152
      H1     7.18995  -10.44021    9.42180
       H     9.04739  -13.61428   13.41380
       O     9.34322  -14.29400   14.05047
      H1     8.63414  -14.41353   14.69669
       H     9.45920   -8.85043    7.07079
       O     8.88076   -8.37658    6.51712
      H1     9.23702   -8.12737    5.63797
       H     8.38788  -11.22790   11.43438
       O     8.80330  -10.79727   10.65469
      H1     9.19186   -9.95777   10.95118
       H     6.40310   -5.97726    7.04817
       O     7.03677   -6.21405    7.76863
      H1     7.69573   -6.88546    7.37607
       H     9.27263  -14.21706    6.67868
       O     9.06176  -14.61372    5.83784
      H1     8.48262  -13.97693    5.36656
       H    12.63297  -13.56928   14.74687
       O    11.95800  -13.43660   15.42049
      H1    11.07348  -13.57770   15.01258
       H    14.19502   -6.44383   11.16848
       O    13.67694   -6.66527   10.37425
      H1    14.23917   -6.26405    9.69952
       H    12.22045  -11.54342   15.31850
       O    11.99396  -10.60436   15.06006
      H1    11.72287  -10.63842   14.13775
       H    13.35434   -8.73054    6.57188
       O    13.65947   -9.64128    6.57824
      H1    14.62120   -9.58974    6.61125
       H     5.00780  -12.64970   11.71438
       O     5.74166  -13.29404   11.92586
      H1     6.13592  -13.48938   11.09640
       H    10.22737  -15.93034   13.84834
       O    10.77487  -16.71186   13.97257
      H1    10.51326  -17.20234   14.76497
       H    14.24600  -13.56030   10.19275
       O    14.40828  -12.81855    9.60483
      H1    13.68387  -12.65486    8.95294
       H     9.36414   -8.25698   13.76999
       O     9.84150   -7.49753   13.33984
      H1    10.10033   -7.89346   12.50419
       H    12.93818  -11.56619    3.79337
       O    12.51486  -10.82742    4.30890
      H1    13.11178  -10.40648    4.91287
       H    12.72773   -7.55286   14.61459
       O    12.14469   -6.79641   14.83388
      H1    11.28909   -7.11228   14.41258
       H    11.56715  -10.27765   16.92333
       O    10.94536  -10.13167   17.68476
      H1    10.97514  -10.97704   18.17842
       H    14.52862   -8.50536    9.69801
       O    14.94543   -9.27836    9.29604
      H1    14.22083   -9.73673    8.85728
       H    11.01892   -7.33300    4.28330
       O    10.03406   -7.40824    4.21885
      H1     9.94301   -7.09911    3.30947
       H     5.47108  -12.29895    8.92148
       O     4.93969  -13.11444    8.98612
      H1     5.65698  -13.75648    9.09387
       H     6.93885   -3.60248    9.37070
       O     7.73803   -3.99399    9.17064
      H1     7.64519   -4.86778    8.77655
       H    14.63021   -8.82365   14.78284
       O    13.98562   -8.92333   14.05218
      H1    13.42658   -9.64010   14.37455
       H     7.80085  -17.68190   11.25414
       O     8.05069  -16.77821   11.36432
      H1     8.31139  -16.60500   12.26659
       H     5.90185   -8.96797    6.87713
       O     6.49544   -9.64437    6.52478
      H1     7.29547   -9.09021    6.57842
       H     8.30064   -6.33195   12.43229
       O     7.72461   -5.92509   11.80625
      H1     8.39489   -5.44070   11.27366
       H    11.09562  -11.15889   12.32593
       O    11.52383  -10.27771   12.50440
      H1    12.48951  -10.41415   12.33522
       H     4.92933   -9.15825   14.65291
       O     5.47438   -8.95175   13.88165
      H1     5.02644   -9.18204   13.08525
       H     7.16610  -15.46808   15.51852
       O     7.57463  -14.67638   15.88753
      H1     6.82481  -14.08964   16.05331
       H    10.93133   -9.14724   11.29900
       O    10.26440   -8.53343   10.94410
      H1    10.78475   -7.70011   10.66527
       H     9.27999   -6.07177   16.04991
       O    10.00395   -6.15505   16.77174
      H1    10.65139   -6.64116   16.17871
       H    13.60809   -5.40507    7.81064
       O    14.46367   -5.73736    8.05391
      H1    14.67059   -6.34283    7.33627
       H    14.70950  -13.97376   13.67172
       O    13.85067  -13.50540   13.32354
      H1    14.12823  -12.70420   12.86403
       H     6.05382  -11.68433    6.40978
       O     5.28693  -12.22216    6.22761
      H1     4.95907  -12.49436    7.10828
       H     3.81359   -9.40189   16.66068
       O     4.36258   -9.99010   16.07290
      H1     5.06382  -10.29309   16.59681
       H     8.02317  -11.30242   13.52599
       O     8.03941  -12.07453   12.97821
      H1     7.14446  -12.35048   12.86297
       H    13.66269  -14.99556    8.73160
       O    13.75672  -15.26636    7.82334
      H1    14.60691  -14.97484    7.64444
       H    11.83224   -6.88117    6.71081
       O    12.61509   -7.10967    6.14414
      H1    12.60819   -6.54189    5.39533
       H    15.27831   -7.23955   13.03275
       O    15.41110   -6.54849   12.36475
      H1    15.02447   -5.74720   12.75264
       H     7.59461   -4.11080   12.73731
       O     7.82677   -3.18504   12.60267
      H1     8.47701   -2.95393   13.26338
       H     5.42817   -7.39999    8.39715
       O     4.80960   -8.08172    8.06504
      H1     4.21731   -7.50226    7.55693
       H     5.06245   -4.00537   12.03402
       O     5.20147   -4.97729   11.93795
      H1     6.14655   -5.23238   11.82878
       H     3.24154   -9.45555   10.81808
       O     2.35198   -8.99182   10.75942
      H1     2.50524   -8.18863   10.23066
       H    14.40784   -9.88990   12.55838
       O    14.06234  -10.45836   11.86331
      H1    14.50475  -10.19622   11.03112
       H     4.82910   -5.62610   13.39927
       O     4.70335   -6.22847   14.17628
      H1     4.84080   -7.09950   13.77596
       H    13.52536  -16.07947   11.18757
       O    13.68237  -15.17298   10.97959
      H1    13.71472  -14.74073   11.89218
       H     5.33965  -10.34482   10.64862
       O     4.84355  -10.15843   11.42737
      H1     4.38080  -10.87231   11.73534
       H    11.44072   -5.40907    7.52447
       O    10.64316   -5.98505    7.36580
      H1    10.48679   -6.40975    8.20248
       H     8.30102   -7.94823   17.75990
       O     8.39690   -8.83949   17.40808
      H1     9.24275   -9.18455   17.56603
       H     8.34249   -9.20466   15.55908
       O     8.14968   -9.46473   14.63722
      H1     7.31563   -9.04516   14.41218
       H     6.84609  -15.36987    8.39493
       O     7.23436  -14.78360    9.08200
      H1     7.54853  -15.45195    9.71489
       H     6.62945   -5.54253   14.75333
       O     7.46836   -5.25715   15.14041
      H1     7.25189   -4.29627   15.26976
       H     2.19944  -12.55081   11.35015
       O     3.11186  -12.27683   11.14510
      H1     3.20949  -12.40968   10.20227
       H     9.81894  -16.05521    7.14935
       O    10.53089  -16.38681    7.64777
      H1    11.32976  -15.97677    7.46675
       H     5.31601  -15.17591   12.45072
       O     5.01474  -15.79063   13.06907
      H1     4.37193  -16.41278   12.74150
       H     9.34285   -3.50972   10.56802
       O    10.05607   -3.72084   11.15149
      H1     9.74742   -3.45645   12.02398
       H    11.27392  -12.58761    7.93759
       O    12.15929  -12.21547    7.97722
      H1    12.54671  -12.28458    7.06067
       H    10.56395   -9.51857    9.13552
       O    10.64186   -9.78106    8.21207
      H1    11.47579  -10.28326    8.19973

