177
frame 8 | Written by MDAnalysis XYZWriter (release 2.4.3)
       H    -4.91224   -7.26157   -1.57921
       O    -5.16747   -8.16989   -1.23345
      H1    -4.56037   -8.37907   -0.48096
       H    -9.49116  -17.31203   -4.66701
       O    -9.01406  -16.80069   -5.26909
      H1    -8.15639  -17.23997   -5.28673
       H    -0.19181  -11.80596   -6.87167
       O    -0.60917  -12.70517   -6.81184
      H1    -1.28373  -12.68381   -6.12229
       H    -7.67816  -10.15696    1.56206
       O    -7.83552  -11.00717    1.10475
      H1    -7.60084  -10.86604    0.22936
       H   -11.53506  -18.87566   -4.44330
       O   -10.95131  -19.35013   -5.02119
      H1   -11.43102  -20.05072   -5.49963
       H    -4.01064  -17.97387   -3.21816
       O    -3.10858  -18.18104   -3.53569
      H1    -2.86344  -17.55585   -4.21098
       H    -9.92433  -12.62602   -9.81353
       O    -9.59658  -12.17715   -8.98926
      H1    -9.71711  -12.87759   -8.32197
       H    -9.83524  -15.62565   -8.06543
       O    -9.65323  -14.65514   -7.84074
      H1    -9.46698  -14.63497   -6.88446
       H    -2.53061  -14.15023   -5.08102
       O    -2.32358  -13.19985   -4.96350
      H1    -3.20405  -12.77662   -4.74318
       H    -6.83031  -18.70649   -5.82714
       O    -6.36725  -17.90271   -5.59343
      H1    -6.24381  -17.43074   -6.46909
       H    -0.76473  -12.37127   -4.08018
       O    -0.17770  -11.89609   -3.46852
      H1    -0.67226  -11.80225   -2.66666
       H   -10.70700  -12.47550   -2.23105
       O    -9.97104  -11.94260   -1.79263
      H1   -10.40397  -11.15662   -1.37743
       H    -5.29043  -15.90477   -7.28909
       O    -5.97469  -16.34132   -7.85046
      H1    -6.59449  -15.64840   -8.10105
       H     1.27708  -14.83206   -1.87247
       O     1.79645  -14.12077   -1.48479
      H1     1.80997  -13.32921   -2.05844
       H    -4.75116  -11.51687   -3.89082
       O    -4.80677  -12.35708   -4.46493
      H1    -5.72586  -12.50069   -4.71998
       H   -10.27242  -19.61572   -0.03521
       O   -10.63668  -19.10344   -0.71285
      H1   -11.14389  -18.40038   -0.27843
       H   -11.17884  -16.58772    2.97237
       O   -10.24298  -16.85047    2.82377
      H1   -10.06324  -16.43091    1.99547
       H    -7.29059  -17.89044    4.24913
       O    -6.64487  -17.13699    4.15319
      H1    -6.97821  -16.81815    3.33973
       H    -5.58978  -11.66666    1.61157
       O    -4.90234  -12.08723    2.13105
      H1    -5.45750  -12.40770    2.85202
       H   -10.31199   -9.83084   -6.00213
       O   -10.01308  -10.29932   -5.16398
      H1   -10.80469  -10.46529   -4.69636
       H     0.08547  -19.79964   -3.52857
       O     0.45034  -19.60063   -2.62637
      H1    -0.24638  -19.10459   -2.14344
       H    -9.40603  -15.01363   -5.09223
       O    -9.61801  -14.01427   -4.99339
      H1   -10.42418  -13.97575   -4.50749
       H    -3.97608  -14.27370   -7.04012
       O    -4.47096  -14.75182   -6.40158
      H1    -5.16570  -14.17990   -6.01143
       H    -5.29703  -15.52583    0.44759
       O    -4.71102  -15.26163   -0.28012
      H1    -3.81463  -15.49681   -0.00065
       H    -5.79622  -17.69526   -3.78212
       O    -5.76860  -17.42154   -2.84498
      H1    -5.97880  -16.46224   -2.82719
       H    -6.58935   -8.25492   -4.12484
       O    -6.19527   -8.82672   -4.82421
      H1    -6.55988   -9.66927   -4.56742
       H    -8.44788   -8.45333   -1.44493
       O    -7.98328   -8.37865   -0.52683
      H1    -7.02463   -8.35999   -0.67871
       H    -8.56694  -10.95953   -4.19257
       O    -7.76614  -10.81714   -3.67761
      H1    -7.77211  -11.50871   -3.05423
       H    -1.79099  -15.15146    0.28220
       O    -2.20875  -16.02956    0.31365
      H1    -1.98944  -16.59906   -0.44387
       H    -2.99870  -15.66512   -5.66893
       O    -2.31508  -16.14374   -5.14238
      H1    -1.61270  -16.26364   -5.78083
       H    -2.67083   -9.81955    1.68869
       O    -2.46652  -10.69333    2.12770
      H1    -3.21137  -11.16680    1.86683
       H    -2.35544  -13.09226   -7.71609
       O    -2.96935  -13.48960   -8.28701
      H1    -3.71145  -12.81134   -8.38472
       H    -2.22583  -16.43553    1.94232
       O    -2.14789  -16.54484    2.94631
      H1    -2.45206  -15.67848    3.30829
       H    -5.55499  -13.91784   -3.34050
       O    -5.85358  -14.74021   -2.86274
      H1    -5.26195  -14.81461   -2.07016
       H    -8.89025   -9.52749   -3.21673
       O    -9.34938   -8.80820   -2.80855
      H1    -9.68447   -8.23702   -3.51888
       H    -4.48298  -18.01022    1.87463
       O    -4.90715  -18.66070    2.38370
      H1    -5.64234  -18.26872    2.86149
       H    -8.12728  -12.64263   -1.62791
       O    -7.17967  -12.51688   -1.59183
      H1    -6.77906  -13.31453   -1.93562
       H    -5.44027  -12.45720   -0.84616
       O    -4.48481  -12.70603   -0.86661
      H1    -4.40473  -13.54484   -0.34086
       H    -1.03632  -13.23602   -0.66463
       O    -0.68037  -13.91269    0.00138
      H1     0.11792  -14.20236   -0.49422
       H    -7.11780  -16.48972    0.69624
       O    -6.87540  -15.90168    1.46038
      H1    -7.29981  -15.04361    1.31196
       H    -2.24003  -18.37473   -2.10621
       O    -1.60428  -18.15521   -1.36350
      H1    -1.64149  -18.84876   -0.68396
       H     0.17616  -16.68309   -2.90522
       O     0.56899  -16.45926   -2.09405
      H1     0.08172  -17.20339   -1.51602
       H    -7.31500  -13.61788  -10.21910
       O    -7.48916  -14.34132   -9.63379
      H1    -8.29654  -14.19784   -9.18025
       H    -8.70770  -12.65347    1.18923
       O    -8.85426  -13.49540    1.65486
      H1    -9.21229  -14.10820    0.98434
       H    -8.87390  -16.40879   -0.25845
       O    -9.66122  -15.88247    0.08052
      H1   -10.44324  -15.87367   -0.45689
       H   -10.43830  -18.11588   -7.93104
       O    -9.72033  -17.48270   -7.88916
      H1    -9.71026  -17.36835   -6.93150
       H     0.56229  -16.21591   -6.65035
       O    -0.24169  -16.75468   -6.87892
      H1    -0.25283  -17.01439   -7.79961
       H    -2.15919  -12.78756    2.74869
       O    -2.10066  -13.50935    3.36906
      H1    -2.91167  -13.42369    3.88689
       H    -8.04243  -18.42842   -0.63350
       O    -7.49916  -17.64739   -0.61481
      H1    -6.95937  -17.57238   -1.42922
       H    -7.98616  -13.33236   -5.37411
       O    -7.11227  -13.30003   -5.78037
      H1    -7.18768  -12.62620   -6.40918
       H   -12.27686  -16.22603   -0.87444
       O   -11.79263  -15.78583   -1.56126
      H1   -11.83635  -16.49660   -2.20143
       H    -4.54310  -17.34883  -10.38594
       O    -4.99294  -18.06232   -9.85459
      H1    -5.50176  -17.71605   -9.09550
       H    -7.33576  -10.09958   -7.56587
       O    -7.37926  -11.00769   -7.81501
      H1    -8.19399  -11.13373   -8.37262
       H    -5.79012  -13.33578   -9.18779
       O    -5.43230  -12.48651   -9.12423
      H1    -6.06712  -11.99343   -8.51697
       H    -2.90361   -9.82597   -4.69722
       O    -2.49902   -9.56486   -5.52755
      H1    -2.91223   -8.67108   -5.57371
       H   -12.39074  -13.13814   -3.35243
       O   -11.59061  -13.62624   -3.13337
      H1   -11.87653  -14.31348   -2.51018
       H    -4.19141  -19.10083   -8.63681
       O    -3.69185  -19.87933   -8.34425
      H1    -3.44982  -19.72903   -7.42469
       H    -3.94736   -9.43154   -2.60560
       O    -3.62348  -10.15627   -3.17034
      H1    -3.00219  -10.75383   -2.64677
       H    -2.81129  -11.77774   -0.97169
       O    -2.03941  -11.43984   -1.44667
      H1    -1.42739  -10.94363   -0.90483

