177
frame 12 | Written by MDAnalysis XYZWriter (release 2.4.3)
       H    -2.83285   11.36487    8.76566
       O    -2.15498   11.65715    8.13022
      H1    -2.09096   12.60641    8.05030
       H     8.56423   15.86372    2.36794
       O     8.53240   16.41206    3.18342
      H1     7.61059   16.78620    3.20897
       H    -1.86051   13.14740    3.80339
       O    -2.15529   14.08857    3.67753
      H1    -2.79832   14.04322    2.96725
       H     1.30696   18.73920   -0.19984
       O     1.12001   18.47834    0.70907
      H1     0.61110   17.69925    0.61995
       H    -6.22389   18.10137    4.77114
       O    -5.36444   17.71609    4.51388
      H1    -5.55679   17.37426    3.65781
       H     4.09210   13.77935   13.36563
       O     4.48276   12.96089   13.10847
      H1     4.45848   12.95831   12.11203
       H     7.54731   15.86053    7.51052
       O     7.43228   14.87814    7.29087
      H1     6.70760   14.99957    6.65605
       H     4.90194   17.40497   12.92624
       O     4.58883   17.22135   13.84327
      H1     5.18063   17.85098   14.34788
       H    -3.07428   19.86933    4.27044
       O    -2.98884   19.00198    3.75861
      H1    -3.88561   18.61479    3.77519
       H    -3.87041   16.51228    7.89322
       O    -2.98926   16.53106    8.43492
      H1    -2.35463   15.82228    8.22742
       H     2.31387   18.16054    4.49644
       O     1.84724   18.24006    5.39937
      H1     2.01552   19.18355    5.69420
       H     5.86283   18.91241   10.31347
       O     6.26852   19.35646    9.51527
      H1     6.73201   20.19234    9.70850
       H     6.39499   16.89101   11.39377
       O     5.55852   17.41895   11.38514
      H1     4.88567   16.97564   10.85502
       H     8.12307   17.27844   13.16170
       O     8.01896   16.55181   12.49385
      H1     7.81637   15.70730   12.92598
       H     0.05089    9.28487    5.94762
       O     0.61775    9.36448    6.70562
      H1     1.04891   10.21576    6.61515
       H     2.14077   15.64240    6.93299
       O     2.82837   16.29389    6.92715
      H1     2.51536   17.10695    6.44605
       H     1.72243   15.67073   -1.32585
       O     1.76234   14.94488   -0.63974
      H1     1.19180   15.34152    0.06501
       H    -1.32517   18.62853    4.81503
       O    -0.80607   18.06123    5.39937
      H1     0.11710   18.36460    5.29354
       H     3.86070   14.49278    1.52439
       O     4.29516   15.26434    1.10922
      H1     4.69999   15.75664    1.86391
       H    10.80890   16.84566    9.77308
       O    10.56774   17.44551    8.95473
      H1     9.63286   17.34121    8.82572
       H     2.65719   12.23057    6.08035
       O     1.88458   12.12776    6.64165
      H1     2.22712   12.31235    7.52101
       H     0.57474    9.69992   10.10889
       O     0.26932   10.58903    9.84571
      H1    -0.25059   10.55620    9.06723
       H     0.51476   14.73987    5.51663
       O     0.60648   14.64843    6.50172
      H1     0.88657   13.68370    6.52825
       H    -0.85576   15.09424    3.96310
       O    -0.05376   15.63999    4.17787
      H1    -0.32785   16.49055    4.66403
       H     6.36127   18.94678    0.76514
       O     5.44418   18.87704    0.94750
      H1     5.17934   18.21707    0.31951
       H     9.30437   13.34472    4.37674
       O     9.41384   12.43872    4.07741
      H1     9.52383   11.83292    4.84235
       H     7.25023   18.06646    8.63097
       O     7.88152   17.66861    7.96379
      H1     8.28017   18.39773    7.45592
       H     5.48247   13.43532   10.22743
       O     4.98954   12.60635   10.50661
      H1     4.26876   12.54002    9.85872
       H    -0.07143   15.84186    1.95714
       O    -0.07318   16.02273    1.02678
      H1    -0.95258   16.00341    0.66722
       H    -0.13427   16.96308    8.86094
       O    -0.15407   16.46445    9.64108
      H1    -0.78062   16.90033   10.23080
       H     2.55625   18.78195   14.38969
       O     1.61674   18.91691   14.47823
      H1     1.33227   18.17607   13.92379
       H    -2.58901   14.27231    6.85102
       O    -1.87201   14.38835    7.51866
      H1    -1.05660   14.63838    7.04791
       H    -0.65670   16.62274   12.92676
       O     0.28515   16.77319   12.76590
      H1     0.51104   16.25245   12.03273
       H     8.63388   14.92039    6.03898
       O     9.32755   14.88028    5.33381
      H1     9.02974   15.44139    4.61968
       H     0.92505   15.43962   10.37954
       O     1.65239   14.85416   10.73417
      H1     1.22223   14.09684   11.23689
       H    -2.10716   18.14878    9.86358
       O    -1.90316   17.96690   10.79933
      H1    -1.39580   18.67887   11.13873
       H     5.12636   17.22772    2.80912
       O     5.73791   16.48619    2.96538
      H1     5.57898   16.19296    3.85250
       H     3.30252   15.47802    9.96405
       O     3.94079   16.03199    9.48708
      H1     3.74691   16.13408    8.54910
       H     5.85353   11.08715   10.55706
       O     6.67137   10.63414   10.44585
      H1     7.36775   11.04947   10.95062
       H     1.30785   12.22573   12.28670
       O     0.52191   12.70264   11.98011
      H1     0.15855   12.19922   11.24154
       H     4.75434   10.02087    2.89701
       O     4.88252   10.08590    3.82709
      H1     4.42728    9.36348    4.26338
       H    -1.50904   19.63666    1.21679
       O    -2.13204   18.91713    1.03412
      H1    -2.41745   18.71391    1.87995
       H     0.50096    9.96567    2.96290
       O     1.32330   10.01530    2.47945
      H1     1.10899   10.66996    1.83090
       H     3.66831   12.85684    4.02407
       O     4.04435   12.56492    4.82476
      H1     4.41985   11.65547    4.70987
       H    -3.89361   15.20441   10.52565
       O    -4.68656   15.46692   11.01208
      H1    -5.06034   16.35147   10.79729
       H     4.15001   16.80111   -0.30348
       O     4.38245   17.37491   -1.01941
      H1     3.69021   18.02914   -1.12276
       H     7.96681   17.99743   -0.08423
       O     8.14259   18.33704    0.78733
      H1     8.43809   17.61288    1.36472
       H     2.28583   17.91669    2.13100
       O     2.73346   17.58905    2.89153
      H1     2.20567   16.82342    3.18298
       H     5.82182   10.41811    7.51432
       O     5.50427    9.61829    7.98353
      H1     5.91412    9.57816    8.83417
       H     6.80610   14.75097    9.12081
       O     6.35518   14.93855    9.92843
      H1     5.58188   15.39395    9.61491
       H     4.73291   14.54015    5.41775
       O     5.15420   15.38332    5.67346
      H1     4.49249   15.82139    6.16546
       H    -1.03324   18.67183    7.02813
       O    -1.17599   18.43520    7.96731
      H1    -1.78562   17.67765    7.92512
       H     5.69537   11.49671    1.56056
       O     4.78634   11.37738    1.23023
      H1     4.76961   11.47093    0.26869
       H    -5.39944   20.24062    7.00770
       O    -5.00268   19.46832    7.38736
      H1    -4.48318   19.20495    6.58034
       H    -5.33774   16.71489    6.09981
       O    -5.25800   16.03947    6.75198
      H1    -6.20970   15.79003    6.93130
       H     3.31215   15.78482   13.88194
       O     2.79319   14.98863   13.62588
      H1     1.89350   15.30851   13.38075
       H     2.30809   13.55472    9.65332
       O     2.55599   12.69306    9.21295
      H1     1.94040   12.02171    9.67475
       H    -4.66938   14.65783    5.77859
       O    -4.14379   13.91075    5.52053
      H1    -3.48836   14.33058    4.96170
       H     3.54852   12.31056    2.09563
       O     3.06300   13.08527    2.34929
      H1     2.13909   12.79780    2.30797

