177
frame 5 | Written by MDAnalysis XYZWriter (release 2.4.3)
       H     7.26245  -17.88234   14.07970
       O     7.29683  -16.89125   14.16268
      H1     6.54724  -16.56648   13.63919
       H     7.77043  -17.31738   17.14012
       O     8.65517  -16.97871   17.10829
      H1     8.60505  -16.02231   16.84969
       H    -1.11600  -18.52255   16.75406
       O    -0.78231  -19.41513   16.61185
      H1     0.01815  -19.47470   17.12198
       H     9.04739  -13.61428   13.41380
       O     9.34322  -14.29400   14.05047
      H1     8.63414  -14.41353   14.69669
       H    -5.92258  -17.50019   12.68083
       O    -5.18441  -16.89800   12.50679
      H1    -4.42201  -17.19111   13.03578
       H     7.37758  -20.12247   14.87721
       O     6.87308  -19.45592   14.43281
      H1     6.29630  -19.09010   15.11446
       H    -6.03615  -16.86122   17.29486
       O    -5.54872  -17.51443   16.83699
      H1    -6.10608  -17.77700   16.10835
       H     0.00447  -12.77947   12.58240
       O     0.48250  -12.88706   11.75949
      H1     0.28436  -12.08888   11.21867
       H     2.53926  -20.11453   13.95280
       O     2.32123  -19.15560   14.14895
      H1     2.87831  -18.90117   14.84686
       H     5.51655  -14.24447   19.90980
       O     6.10698  -14.93749   19.48011
      H1     6.19997  -14.56831   18.61316
       H     5.00780  -12.64970   11.71438
       O     5.74166  -13.29404   11.92586
      H1     6.13592  -13.48938   11.09640
       H    -6.06058  -19.48381   14.68279
       O    -6.74722  -18.77297   14.58416
      H1    -7.51108  -19.18994   14.18420
       H    -7.16474  -14.37142   12.89475
       O    -6.78344  -15.12220   13.50114
      H1    -6.21391  -15.71286   13.02065
       H    -3.14265  -15.50973   15.61886
       O    -3.11104  -16.29266   16.13026
      H1    -3.98229  -16.54948   16.43060
       H    -0.90500  -16.66540   18.71604
       O    -1.65216  -17.13457   18.42798
      H1    -2.10346  -16.69320   17.70599
       H    -2.13272   -9.36832   12.83215
       O    -1.42445   -9.79744   12.33303
      H1    -1.94365   -9.84279   11.45241
       H     7.80085  -17.68190   11.25414
       O     8.05069  -16.77821   11.36432
      H1     8.31139  -16.60500   12.26659
       H    -2.60599  -11.08411   15.48512
       O    -3.55572  -11.19475   15.33208
      H1    -3.70034  -10.82282   14.45974
       H    -5.27146  -13.29069   17.11678
       O    -4.95874  -12.41263   17.25999
      H1    -4.35596  -12.26820   16.50944
       H    -3.92483  -14.96871    9.91431
       O    -3.43836  -14.19417   10.21334
      H1    -2.49835  -14.64645   10.15532
       H    -2.37581   -8.16789   16.55455
       O    -2.41957   -8.83218   17.22962
      H1    -1.64431   -8.63627   17.82754
       H    -0.54712  -11.44350   17.19356
       O    -1.07571  -11.03245   16.51358
      H1    -1.49452  -10.22064   16.79521
       H     0.01163  -18.63315    9.07570
       O    -0.81758  -18.14318    9.34935
      H1    -0.56724  -17.22695    9.47645
       H    -3.94025  -13.67649   11.90790
       O    -4.38273  -13.62669   12.77885
      H1    -5.11183  -14.25106   12.75548
       H     6.48029  -10.90320   19.20919
       O     6.16908  -10.22571   18.54928
      H1     6.93028   -9.82805   18.14510
       H     4.47471  -19.79935   16.01709
       O     4.44521  -18.84073   16.08364
      H1     4.80780  -18.63974   16.98352
       H    -5.47395  -18.90885   17.79773
       O    -5.70439  -19.70074   18.33339
      H1    -4.89161  -20.21985   18.46584
       H     4.92933   -9.15825   14.65291
       O     5.47438   -8.95175   13.88165
      H1     5.02644   -9.18204   13.08525
       H     7.16610  -15.46808   15.51852
       O     7.57463  -14.67638   15.88753
      H1     6.82481  -14.08964   16.05331
       H    -0.92150  -11.11615   13.47091
       O    -0.65893  -11.92036   13.96043
      H1    -0.87467  -11.64469   14.88930
       H     1.44531  -16.35308   19.99186
       O     0.68135  -16.23760   19.37996
      H1     1.18755  -16.27683   18.55318
       H     3.81359   -9.40189   16.66068
       O     4.36258   -9.99010   16.07290
      H1     5.06382  -10.29309   16.59681
       H     8.02317  -11.30242   13.52599
       O     8.03941  -12.07453   12.97821
      H1     7.14446  -12.35048   12.86297
       H     2.81342   -9.38133   19.85634
       O     1.93969   -9.61753   19.51262
      H1     2.17316   -9.93996   18.66241
       H     2.86095  -18.55935   12.35997
       O     3.46288  -18.10513   11.82358
      H1     3.30597  -18.48256   10.96655
       H     5.96883  -16.80837   18.74558
       O     6.18472  -17.65053   18.29167
      H1     5.91691  -18.39949   18.92841
       H    -3.12036  -14.63371   13.17872
       O    -2.30400  -15.12508   13.14286
      H1    -2.36179  -15.43593   12.23226
       H    -6.11029  -10.93666   16.25002
       O    -6.62057  -10.28520   15.80371
      H1    -7.53926  -10.40955   16.06219
       H    10.12849  -18.01481   16.67722
       O    11.09643  -18.23485   16.59419
      H1    11.45640  -17.31464   16.64734
       H     5.33965  -10.34482   10.64862
       O     4.84355  -10.15843   11.42737
      H1     4.38080  -10.87231   11.73534
       H    10.28872  -18.04113   19.65467
       O     9.37515  -17.79609   19.61175
      H1     9.16556  -17.61738   18.63666
       H     0.67955  -13.92094   14.79092
       O     0.38229  -14.85975   14.84091
      H1    -0.34093  -14.91054   14.16962
       H     1.64099  -17.36207   16.79146
       O     1.79435  -16.39837   16.78740
      H1     1.19305  -15.96215   16.11024
       H     2.36595  -16.11423    9.05076
       O     1.60584  -15.76707    9.60202
      H1     1.90023  -15.44909   10.46774
       H     0.29898   -7.21927   18.21432
       O    -0.16666   -7.92012   18.70624
      H1     0.51146   -8.44656   19.14212
       H     3.43615  -13.18793   15.84522
       O     3.00629  -12.52908   16.36552
      H1     3.33264  -11.65488   16.17139
       H     5.61324  -11.85250   17.69589
       O     5.50072  -12.76640   17.35028
      H1     4.56388  -12.80524   17.07654
       H    -6.12238  -14.02477   18.91794
       O    -6.17150  -14.65929   18.14994
      H1    -7.14974  -14.81423   18.20084
       H     3.61707  -15.40049   16.02718
       O     4.27809  -14.84132   15.60105
      H1     4.32567  -15.05934   14.64587
       H    -2.70897  -17.38097   14.68043
       O    -3.01728  -18.12625   14.13627
      H1    -2.23470  -18.63002   13.91995
       H     1.44780  -19.48561   18.42659
       O     1.62929  -19.14012   17.54194
      H1     2.38977  -19.67501   17.21704
       H     0.25878  -18.90553   13.95633
       O    -0.57563  -19.37348   14.02974
      H1    -0.65389  -19.52845   15.03045
       H     2.19944  -12.55081   11.35015
       O     3.11186  -12.27683   11.14510
      H1     3.20949  -12.40968   10.20227
       H     6.31322  -19.22054   12.76188
       O     5.90924  -19.23630   11.87218
      H1     5.03161  -18.84709   11.92125
       H    -7.91188  -11.78877   18.12825
       O    -7.68432  -11.46127   19.04528
      H1    -6.96037  -12.04601   19.25764
       H     5.31601  -15.17591   12.45072
       O     5.01474  -15.79063   13.06907
      H1     4.37193  -16.41278   12.74150
       H     2.41856   -7.69956   16.44432
       O     2.49811   -8.39396   17.12221
      H1     2.68452   -7.83906   17.92745
       H     0.03807  -15.10405   10.20716
       O    -0.83816  -14.92398   10.52103
      H1    -0.63938  -14.16527   11.10608
       H     1.35480  -13.36989   17.60615
       O     0.63460  -12.94973   18.15627
      H1     1.16707  -12.79423   18.96441

