177
frame 11 | Written by MDAnalysis XYZWriter (release 2.4.3)
       H     8.88386   -9.12350  -14.06750
       O     8.11310   -9.28327  -13.46528
      H1     8.02627  -10.27517  -13.47308
       H    10.31562   -9.14108  -10.61118
       O    11.09579   -8.86362  -10.16837
      H1    11.63625   -8.65157  -10.90218
       H     7.74986   -8.66614  -11.76235
       O     7.58354   -8.29764  -10.89583
      H1     8.16610   -7.56477  -10.71026
       H     8.66095  -19.97488  -17.96801
       O     8.29819  -19.92692  -17.02128
      H1     8.56361  -19.08188  -16.70819
       H     4.00160  -16.98457  -17.65368
       O     3.45680  -16.21855  -18.01153
      H1     2.49812  -16.44441  -17.89392
       H     4.59212  -12.93109  -13.65829
       O     3.70881  -12.82028  -13.20111
      H1     3.40876  -11.90765  -13.24566
       H     2.62045  -18.79435  -16.17843
       O     3.27470  -18.81448  -16.91918
      H1     4.05537  -19.16357  -16.52059
       H     3.71085  -11.56252  -17.70156
       O     3.01106  -11.15778  -18.24286
      H1     2.18277  -11.61345  -18.17846
       H     3.52326   -9.71523   -9.81743
       O     3.51491   -8.89052  -10.31303
      H1     4.28490   -8.33724  -10.11966
       H     6.42000  -17.95252   -9.85012
       O     6.09020  -17.01172   -9.97033
      H1     5.19696  -17.12736   -9.78555
       H     8.37201  -14.65604  -18.81800
       O     8.21056  -14.68475  -17.83983
      H1     8.78385  -13.90681  -17.61993
       H    11.25793  -17.14397  -15.97633
       O    11.21260  -17.56295  -16.87713
      H1    11.40261  -18.53869  -16.81033
       H     9.22254   -8.68768  -16.13172
       O     9.85044   -8.49172  -15.41746
      H1     9.79548   -7.53768  -15.16883
       H     5.20808  -13.42813   -9.02687
       O     5.72166  -12.99033   -8.34622
      H1     5.02776  -12.84100   -7.71799
       H     4.21984   -9.13753  -17.93299
       O     4.32372   -8.24030  -18.27591
      H1     5.20870   -7.88877  -18.13687
       H    -0.95107  -14.36662  -15.62037
       O    -0.55694  -15.21371  -15.87813
      H1    -0.26785  -15.61798  -15.04283
       H     0.11079  -16.36445  -17.36564
       O     0.66194  -16.98930  -17.80101
      H1     0.93001  -17.61836  -17.09253
       H     0.41371  -17.55364  -13.88140
       O     0.40060  -16.66478  -13.45804
      H1     1.33695  -16.39992  -13.26543
       H     9.57945  -14.74551  -10.21476
       O     8.90122  -14.04494  -10.28861
      H1     8.20845  -14.38564  -10.90417
       H     5.90172  -14.77553   -7.72515
       O     6.31052  -15.67998   -7.70729
      H1     6.28483  -16.12475   -8.57470
       H     3.13717  -11.42548   -8.49736
       O     2.93680  -11.32550   -9.44017
      H1     1.99287  -11.35023   -9.66094
       H    11.66595   -8.60551  -15.69019
       O    12.55130   -8.29605  -15.50194
      H1    12.88638   -8.05632  -16.33092
       H    10.37938  -12.00693  -16.24571
       O    10.20663  -12.22131  -17.16199
      H1    10.81698  -12.96220  -17.29628
       H     8.82027  -11.09259   -8.54496
       O     9.35096  -11.87002   -8.44132
      H1     8.87931  -12.56111   -9.01849
       H     3.71079  -19.17066  -12.12720
       O     3.12805  -18.40812  -12.10928
      H1     3.12588  -17.99980  -12.97386
       H     5.40541  -18.87874  -15.10907
       O     5.66654  -19.69415  -15.52407
      H1     6.31633  -19.61509  -16.21655
       H     7.56621  -15.80519  -12.55598
       O     6.95973  -15.24528  -12.03426
      H1     6.71203  -15.76922  -11.27277
       H     3.82860  -18.48616   -8.97849
       O     4.24013  -19.24209   -8.51722
      H1     4.24241  -19.13125   -7.52681
       H     2.46732   -7.75297  -11.19089
       O     2.33408   -6.98802  -11.78131
      H1     1.46971   -7.14059  -12.15341
       H     0.34017  -11.27330  -11.40351
       O     0.56626  -11.36415  -10.45731
      H1     0.08473  -10.71158   -9.88717
       H     2.48172  -15.54849  -14.38023
       O     2.67652  -15.33440  -13.47188
      H1     2.96027  -14.42192  -13.60866
       H     6.75066   -8.76883  -14.76940
       O     6.12344   -8.30371  -15.32629
      H1     5.34642   -8.08518  -14.76026
       H     3.05975  -17.32215  -10.61999
       O     3.46463  -17.19625   -9.75228
      H1     2.85525  -16.63788   -9.19736
       H     2.94596   -9.68215  -12.73506
       O     2.69078  -10.28354  -13.45908
      H1     1.74156  -10.12311  -13.52614
       H     6.99880   -9.19418  -16.78685
       O     7.88399   -9.49988  -17.12433
      H1     7.71245   -9.50929  -18.07829
       H     9.81747  -13.03333  -11.57496
       O    10.14196  -12.19650  -11.96197
      H1    10.82594  -12.41436  -12.60914
       H     6.57599  -11.30421   -8.82401
       O     6.93555  -10.47647   -8.69495
      H1     6.80283   -9.98973   -9.50972
       H    10.37545  -12.94211  -14.40097
       O    11.24958  -13.30950  -14.30313
      H1    11.82603  -12.53972  -14.35504
       H     9.05980  -17.29360  -16.77127
       O     8.46537  -17.45074  -16.05498
      H1     7.62715  -17.30242  -16.54261
       H     3.25878   -7.42382  -14.69320
       O     3.96564   -7.33345  -14.00532
      H1     3.48864   -7.19502  -13.09883
       H    10.46424  -18.57241  -12.18086
       O     9.61190  -18.88047  -12.45209
      H1     9.84907  -19.32800  -13.30197
       H     7.04679  -11.38709  -17.01432
       O     6.11274  -11.52925  -17.25017
      H1     5.88920  -12.44097  -16.91170
       H    14.01689  -11.30883  -14.14323
       O    13.08286  -11.15080  -14.23352
      H1    12.92514  -10.35007  -14.74326
       H     2.32041  -14.83518  -10.02376
       O     1.61176  -15.15450   -9.51018
      H1     0.88856  -14.50344   -9.69657
       H    10.36602  -16.45886  -14.11877
       O    11.19819  -16.19952  -14.59234
      H1    11.08735  -15.24722  -14.81860
       H     3.58152  -13.02072   -9.99110
       O     3.86654  -13.88329  -10.31493
      H1     3.81544  -13.82124  -11.26858
       H     5.99070  -14.06206  -14.79381
       O     6.31699  -13.54529  -14.04877
      H1     6.54805  -14.22746  -13.32397
       H     3.10837   -7.53871  -16.98781
       O     2.42912   -7.35571  -16.29228
      H1     2.42208   -6.39285  -16.23106
       H     5.21132  -16.52883  -13.93416
       O     5.00696  -17.16727  -14.60899
      H1     5.12014  -16.70619  -15.52177
       H    -0.67608  -12.02562  -15.83193
       O    -1.08365  -12.32423  -15.01454
      H1    -1.95808  -11.86913  -15.07819
       H    10.85393   -8.82415  -18.04755
       O    11.06098   -9.69958  -18.40835
      H1    10.60464  -10.38227  -17.80507
       H     8.87598  -12.00307  -13.11560
       O     8.58129  -12.11722  -14.01652
      H1     7.68416  -12.61157  -13.94466
       H    11.33016  -15.45948  -18.01048
       O    11.05606  -14.80247  -18.62795
      H1    10.37959  -15.30114  -19.03356
       H     5.69691   -6.79165   -8.88870
       O     5.45568   -6.91245   -9.81144
      H1     6.16317   -7.36411  -10.28097
       H     7.81861  -15.15534   -7.16513
       O     8.65631  -14.85990   -6.78216
      H1     8.86716  -13.95175   -7.08759
       H     5.98873  -17.89300  -18.00367
       O     5.91687  -17.17418  -17.32666
      H1     5.78420  -16.32939  -17.85038
       H    -0.43483  -11.32204  -13.81681
       O    -0.14957  -10.75493  -13.05943
      H1    -0.72096   -9.99018  -12.95007
       H     6.41273  -14.37323  -17.42369
       O     5.54362  -14.40463  -17.00695
      H1     4.84976  -14.62276  -17.66822
       H     8.78533  -17.50869  -13.13337
       O     8.74201  -16.64835  -13.50219
      H1     8.46566  -16.72422  -14.47491

