177
frame 11 | Written by MDAnalysis XYZWriter (release 2.4.3)
       H    -3.06439   11.23300    9.49752
       O    -2.21042   11.19349    9.00170
      H1    -1.91448   12.08982    8.81224
       H    -2.86640    4.46842   11.37567
       O    -3.44940    3.68350   11.29839
      H1    -4.16864    3.84532   11.92134
       H    -8.81007   11.00078   13.52522
       O    -9.45348   11.70599   13.54938
      H1    -8.87079   12.53117   13.46694
       H    -9.07617    8.54763    7.08778
       O    -8.38700    7.83129    7.26105
      H1    -8.80814    7.26863    7.98107
       H    -0.72322    6.47788    6.33268
       O     0.21212    6.46398    6.59229
      H1     0.55132    5.63438    6.25933
       H    -4.93622   15.65150   12.43484
       O    -5.31211   15.20296   13.18427
      H1    -6.26719   15.21243   12.98418
       H    -0.48304    3.30467   13.35976
       O    -0.98894    3.33768   14.18395
      H1    -0.32054    2.98204   14.81410
       H    -0.82725    3.76976    9.67021
       O    -1.37334    3.59056    8.85944
      H1    -2.12823    3.10819    9.32062
       H    -9.35369    7.11058   10.95306
       O    -9.73715    7.49215   11.73237
      H1    -9.24647    8.31782   11.86730
       H    -0.78314   11.22466   18.33946
       O    -0.56160   12.13715   18.13376
      H1    -0.48836   12.22263   17.17402
       H     0.82613    8.46368    6.49541
       O     1.53019    8.95675    7.01214
      H1     1.33016    9.89413    6.81296
       H     1.90808    5.76888   13.70408
       O     2.72027    5.39494   14.10582
      H1     2.64016    5.78890   14.96389
       H    -2.20808    6.51409   10.77962
       O    -2.15745    5.94748   11.61215
      H1    -2.83413    6.34725   12.24691
       H    -4.58104    5.83569    9.23500
       O    -4.79136    6.51617    9.91863
      H1    -5.49842    7.07824    9.57049
       H    -7.39089   10.47444   16.83486
       O    -7.62793    9.70265   17.29415
      H1    -7.47415    9.85786   18.18600
       H    -7.64668    3.82661   11.17926
       O    -8.31089    3.27363   10.77247
      H1    -9.08740    3.52773   11.26054
       H    -5.81964   11.98330   12.79011
       O    -6.28252   11.58864   12.02631
      H1    -5.57446   11.41539   11.39599
       H     0.48789    9.27731   10.29232
       O     0.02967   10.11877   10.29778
      H1    -0.62620   10.05700    9.65267
       H    -1.08271    9.63543   12.35438
       O    -1.80790    9.26551   12.80999
      H1    -2.02821    9.82585   13.58499
       H    -2.61665    5.10314    5.72670
       O    -2.40680    6.00080    5.80487
      H1    -2.88447    6.27362    6.58856
       H    -4.05388    7.83085   10.77119
       O    -3.93387    8.76873   11.10298
      H1    -3.10900    8.75791   11.62427
       H    -1.30490    5.66022    8.96257
       O    -1.57481    6.55914    8.92375
      H1    -0.79468    6.99530    8.59221
       H     2.67467   10.02967   15.06844
       O     2.53541    9.46107   15.85584
      H1     2.99137    9.85054   16.59506
       H    -7.35155    7.02661   14.77656
       O    -6.98712    7.06512   13.85307
      H1    -6.00807    7.05065   13.94175
       H    -2.12943   14.55089   15.53380
       O    -1.54582   14.95964   14.80744
      H1    -1.87233   15.88336   14.63941
       H    -2.33920   13.95689    6.95568
       O    -1.81722   13.92743    7.76328
      H1    -0.88761   13.92650    7.44893
       H    -5.10642    4.16095    7.22561
       O    -5.31420    4.95694    7.70473
      H1    -5.38417    5.63980    7.02691
       H     0.09541   14.72313   11.07208
       O     0.94881   14.35734   11.27426
      H1     0.65642   13.56431   11.85875
       H    -6.27558    6.08473   10.92881
       O    -6.98448    5.77396   11.49755
      H1    -6.82861    6.20935   12.34530
       H    -2.06035    8.34155   18.03192
       O    -2.57835    8.01297   17.31680
      H1    -2.05589    8.32961   16.56754
       H    -1.64210    5.60037   15.87347
       O    -2.41345    5.47729   16.37288
      H1    -2.53567    6.36471   16.68495
       H     1.48902    7.39027   10.26812
       O     1.16468    7.79586   11.04533
      H1     0.71985    7.14941   11.61098
       H     0.55072    7.04958   16.37582
       O     0.32826    7.72829   15.78342
      H1     1.08542    8.33438   15.84620
       H     1.46577   11.70036   12.84868
       O     0.59351   12.09387   12.60456
      H1     0.09815   11.60828   11.92297
       H    -5.48210    8.29551    8.01587
       O    -6.23338    8.35955    8.63692
      H1    -7.07292    8.10933    8.23191
       H    -7.30586    8.67442   12.72081
       O    -7.92601    9.42684   12.68096
      H1    -7.50724   10.18490   12.25757
       H    -3.77931   11.05389   14.62067
       O    -2.93312   10.69648   14.98661
      H1    -2.43508   11.51693   15.11515
       H    -0.48647    6.18478   12.73904
       O     0.26610    6.28788   13.30450
      H1    -0.05310    6.82646   14.12498
       H   -10.26643    6.16930    9.17500
       O    -9.36830    6.44927    9.37697
      H1    -8.86916    5.65261    9.41417
       H    -2.71871   11.14121   18.25409
       O    -3.52368   11.31146   17.81065
      H1    -3.30573   11.10465   16.91185
       H     2.61254    8.69508   11.44627
       O     3.38059    9.28356   11.46546
      H1     4.05468    8.69392   11.73533
       H    -4.95488   13.44224   14.18977
       O    -5.00317   12.50140   14.40159
      H1    -5.32069   12.49863   15.33146
       H    -2.43293   10.52416    7.48500
       O    -2.94566   10.34842    6.67505
      H1    -3.77179   10.98429    6.70798
       H     2.93188    7.20981    9.02569
       O     2.08508    6.96911    8.63664
      H1     1.81860    7.67457    8.03123
       H    -5.30448   11.26185    9.39758
       O    -4.56055   11.34331   10.01730
      H1    -4.42779   10.37491   10.25891
       H    -6.61347   13.12764   10.93088
       O    -6.60143   14.02652   10.64444
      H1    -5.83158   14.39667   11.09033
       H    -0.03073   11.78923   15.13484
       O    -0.68793   12.40781   15.50128
      H1    -0.86438   13.10534   14.81916
       H    -2.52931    2.29712   14.32492
       O    -3.19818    1.58551   14.38122
      H1    -3.11104    1.23643   15.33262
       H    -4.13399    7.09057   14.36119
       O    -3.75480    7.14090   13.47845
      H1    -3.40224    8.03623   13.40824
       H    -4.99012    2.37648   14.40992
       O    -5.75474    2.72900   13.87976
      H1    -6.32733    3.21319   14.53237
       H    -6.59532    9.94635    8.31295
       O    -6.77029   10.91774    8.25708
      H1    -7.72075   11.11098    8.19977
       H     3.37338   10.40328   13.22620
       O     3.01850   11.22238   13.54494
      H1     3.70073   11.93106   13.60140
       H    -1.83433    2.75361   11.53150
       O    -0.88079    2.67961   11.33070
      H1    -0.79134    1.83451   10.88844
       H     1.79078   13.08881   10.21658
       O     2.27684   12.42045    9.69451
      H1     1.86367   11.53806    9.89356
       H    -4.08203    2.62407   10.02066
       O    -4.10048    2.31288    9.11115
      H1    -4.71013    1.51159    9.11365
       H    -5.83810    8.56977   16.10054
       O    -5.06784    8.04774   15.86805
      H1    -4.32195    8.34365   16.46010
       H    -5.38179    7.33924   17.40030
       O    -5.67500    7.11062   18.28476
      H1    -5.25559    7.64237   18.94220
       H    -3.30094    7.37361    8.13219
       O    -3.80123    7.71609    7.33885
      H1    -3.37750    8.55387    7.15605
       H    -5.17070   12.77806    6.63167
       O    -5.19997   11.90474    6.34984
      H1    -5.80747   11.49677    7.03612

