177
frame 1 | Written by MDAnalysis XYZWriter (release 2.4.3)
       H    -4.86148    4.71185   10.22715
       O    -4.81075    4.62749   11.22162
      H1    -5.24731    3.74243   11.36365
       H    -7.82792   -0.69817   12.78125
       O    -6.87067   -0.58371   12.44688
      H1    -6.30936   -1.24216   12.88394
       H   -10.56908    5.93250   13.73452
       O   -11.05736    6.07382   14.53677
      H1   -11.19534    7.02730   14.64132
       H   -16.76018    5.00221    6.97924
       O   -16.08612    4.41063    7.35201
      H1   -15.84444    4.76226    8.22992
       H   -10.94733    8.31248    9.77606
       O   -10.81608    8.68379   10.70589
      H1   -11.32910    8.10350   11.34901
       H   -13.05900    3.34436   13.15331
       O   -13.23164    2.47163   13.57922
      H1   -12.49759    2.10996   13.99620
       H   -11.41296   10.09197    9.77099
       O   -11.99100   10.68960    9.25974
      H1   -11.45608   11.45947    9.00701
       H   -12.32067    8.47599   13.01915
       O   -12.79697    8.02213   12.33020
      H1   -12.91819    7.08412   12.64551
       H   -15.72236    6.23940   10.32492
       O   -15.05380    5.62470    9.86524
      H1   -14.70038    5.09189   10.57397
       H   -14.00333    5.36199   14.00391
       O   -13.47223    5.15469   13.21927
      H1   -12.54624    5.37415   13.55785
       H    -7.56658    3.85326    6.96732
       O    -7.02916    4.20625    6.25310
      H1    -7.52627    3.89285    5.53674
       H   -10.48648    6.40105    4.93345
       O    -9.63900    6.00883    5.19750
      H1    -9.57004    6.32861    6.10493
       H   -12.07773    4.72296    7.59614
       O   -12.11588    5.44407    8.26559
      H1   -12.79025    5.16925    8.87385
       H   -15.45859    2.72492   15.68415
       O   -14.91054    3.48237   15.50130
      H1   -14.26969    3.14700   14.77429
       H    -1.64161    5.17595   10.84128
       O    -2.00430    4.32344   10.97925
      H1    -2.97283    4.51772   11.05589
       H    -5.92617   10.12674   10.66301
       O    -5.97998   10.95096   11.14334
      H1    -5.87698   10.70716   12.07354
       H   -11.86770    8.78646    8.14841
       O   -11.19099    8.12937    8.14189
      H1   -11.65820    7.28253    8.07382
       H   -14.72192    1.77415   13.00527
       O   -15.59600    1.24348   12.81465
      H1   -15.42164    0.66935   12.05759
       H    -7.91547    2.51941   12.99146
       O    -8.83366    2.76881   12.98184
      H1    -9.20362    2.27726   12.21747
       H    -8.04155    2.94237   15.53438
       O    -7.21697    3.49276   15.62525
      H1    -6.98809    3.93475   14.85799
       H    -9.25695    7.65261   10.53024
       O    -8.49361    7.19636   10.18661
      H1    -7.79666    7.78442   10.20491
       H    -8.71795    5.74637   12.16308
       O    -9.54658    5.31197   12.43676
      H1    -9.46266    4.36792   12.64206
       H   -15.26066    1.03967    9.13109
       O   -14.34810    1.31803    8.85096
      H1   -13.85279    0.50360    8.68421
       H   -12.43023    7.51814    4.21126
       O   -12.24973    6.66011    4.60510
      H1   -13.01922    6.29052    4.94455
       H    -3.33544    8.24557   12.30433
       O    -3.63005    7.69590   11.51985
      H1    -4.02927    7.00465   12.00903
       H    -8.83702    3.35764    8.59621
       O    -8.18620    2.81693    8.16534
      H1    -7.54357    2.61417    8.81179
       H   -15.92905    9.04906   11.88705
       O   -15.22817    9.49161   12.41470
      H1   -14.41606    8.99000   12.18998
       H   -10.84987    0.82120    5.97569
       O   -10.56196    1.42433    6.63639
      H1   -11.32926    2.03529    6.75929
       H    -8.70414    9.07618   15.62335
       O    -8.57649    8.18414   15.96686
      H1    -9.38502    8.07773   16.48974
       H    -7.61956    5.66094    7.12911
       O    -7.88125    6.48918    7.48526
      H1    -8.02913    6.44751    8.43615
       H   -11.58105   -1.32769    8.41371
       O   -12.08742   -0.49445    8.22650
      H1   -11.43307    0.19234    8.19369
       H    -7.22972    7.22260   15.46936
       O    -6.41816    7.03096   14.95225
      H1    -5.66715    7.01225   15.54889
       H    -4.16772    4.80540    7.69160
       O    -4.16221    5.33035    8.49892
      H1    -3.23762    5.44648    8.72327
       H    -9.56002   10.92269   13.99516
       O    -9.27074   10.76211   14.91559
      H1    -9.84830   11.38852   15.37760
       H   -12.14398    3.76224    9.94213
       O   -12.91128    3.55560   10.53634
      H1   -13.46364    2.95627    9.98796
       H    -8.11568   -1.90819    9.61637
       O    -7.87695   -2.86308    9.53016
      H1    -7.05740   -3.01479    9.09972
       H    -5.81903    2.69941   16.21349
       O    -5.07539    2.06385   16.43691
      H1    -4.58926    2.40613   17.22453
       H    -5.64356    8.17945    8.95491
       O    -5.83884    8.38673    9.88562
      H1    -4.99686    8.01286   10.26217
       H    -6.19264    8.95512   14.38675
       O    -5.96704    9.75170   13.98281
      H1    -5.03571    9.72202   13.74788
       H    -6.66506    5.84827   13.62159
       O    -6.73767    5.02817   13.06456
      H1    -5.99492    5.13337   12.48100
       H   -13.50943    2.35796    7.32090
       O   -12.89403    2.84988    6.74171
      H1   -13.38127    3.20778    5.96698
       H    -9.72138    4.73936   10.81440
       O    -9.74960    4.64534    9.84935
      H1    -9.67652    5.58724    9.60137
       H   -12.19254    9.09164   15.09375
       O   -11.36868    8.82672   14.57482
      H1   -10.75334    9.47510   14.93048
       H    -9.87088   -1.03654   14.25074
       O    -9.39646   -0.49217   13.69777
      H1    -9.23365    0.35764   14.09022
       H    -8.54132    0.44995    7.40804
       O    -7.87438   -0.08403    6.93938
      H1    -8.19230   -0.99529    6.99787
       H    -9.00206    4.29915    4.25487
       O    -8.76747    3.43160    3.85936
      H1    -9.57539    2.93521    4.04559
       H    -9.92733    1.68176   16.08000
       O    -9.09041    1.77480   16.55670
      H1    -8.72727    0.86374   16.55958
       H   -10.08139   -2.23787   11.49283
       O   -10.80559   -1.71283   11.27453
      H1   -10.47278   -0.83209   11.42822
       H   -11.27232    0.65055   10.95296
       O   -10.44167    0.90936   11.41427
      H1   -10.82486    0.93957   12.30206
       H   -10.30885   10.98170    6.98764
       O   -10.12331   10.79944    6.06139
      H1   -10.29806    9.83174    6.12227
       H   -15.61845    6.58055   15.54910
       O   -14.78679    6.05568   15.47147
      H1   -15.03078    5.17872   15.73034
       H   -10.51634    5.52821   17.68691
       O   -10.21499    6.30780   17.24127
      H1   -10.37035    6.06209   16.30951
       H    -9.07762   -0.03417   10.60509
       O    -8.41634   -0.22785    9.92541
      H1    -7.59415    0.11233   10.19259
       H    -4.40407    2.05963   12.63867
       O    -5.13948    1.76951   12.09943
      H1    -5.50501    0.95643   12.36715
       H   -10.28427   10.15958   11.84895
       O   -10.57068   11.01796   12.33087
      H1   -11.57454   11.02719   12.26872
       H    -5.10291    1.96428    8.70196
       O    -5.74156    1.91885    9.41232
      H1    -5.23256    1.91580   10.26571
       H   -14.38310    6.82963    7.86309
       O   -14.11376    7.71079    7.55081
      H1   -14.98003    8.21822    7.59466
       H    -6.27224    7.50706    7.29849
       O    -5.41290    7.92771    7.34899
      H1    -4.91875    7.10255    7.42193
       H   -11.63707    2.02446   15.84361
       O   -11.38247    1.44016   15.15113
      H1   -11.94700    0.64281   15.04995

