177
frame 8 | Written by MDAnalysis XYZWriter (release 2.4.3)
       H    14.84892    6.91680   -6.67467
       O    13.89441    7.06375   -6.52053
      H1    13.81909    7.94472   -6.09685
       H    16.99138   14.18513   -4.26056
       O    16.02477   14.18641   -4.04069
      H1    15.67523   13.28570   -4.06508
       H     7.70135   10.97117   -1.69117
       O     6.78579   10.75873   -1.85726
      H1     6.60523   11.05103   -2.74943
       H    11.25910    5.99603   -7.05809
       O    10.77423    5.61734   -6.26656
      H1    11.36593    5.45686   -5.53445
       H    15.98757   11.24699   -3.83563
       O    15.69063   11.56822   -4.69290
      H1    15.00241   10.91585   -4.93610
       H    13.10041   11.94591  -11.19593
       O    13.62783   12.57802  -11.67801
      H1    13.06758   13.37969  -11.63988
       H    13.30004    8.96872    2.43758
       O    13.03078    8.17230    2.02588
      H1    13.84523    8.02523    1.46655
       H    15.28243   12.01967  -12.01691
       O    16.05084   11.72962  -12.51752
      H1    16.81192   12.21963  -12.19641
       H    13.68763    8.02463   -8.02114
       O    13.87520    8.34334   -8.91674
      H1    13.25318    9.00855   -9.19429
       H    10.51890   11.09015   -7.82664
       O    10.90364   11.87626   -7.38833
      H1    10.54947   12.64748   -7.89486
       H     7.49458   12.31968   -5.62486
       O     8.27967   12.78606   -5.24378
      H1     7.97550   13.48989   -4.64300
       H    17.70603   11.28351   -1.56977
       O    17.11661   10.69028   -2.10985
      H1    16.25238   10.66981   -1.63750
       H    14.85508    3.20669   -5.80794
       O    14.57766    3.07623   -4.82930
      H1    13.89615    3.72601   -4.60170
       H    10.51555    8.00959   -2.83370
       O    11.16612    8.52291   -2.32405
      H1    10.67446    8.74214   -1.51293
       H    10.21934    4.18200   -2.13080
       O    10.53966    5.06403   -2.26210
      H1    11.34519    5.15089   -1.70099
       H    17.58554   10.48559   -8.30016
       O    18.09260   10.26510   -9.13983
      H1    17.33234   10.00232   -9.77838
       H    10.97985   11.40864   -3.94192
       O    10.11765   11.07358   -3.98912
      H1     9.63023   11.79709   -4.56142
       H    16.96702    6.62066   -5.72716
       O    16.74959    6.33915   -4.80995
      H1    16.94871    5.38530   -4.78409
       H     9.77325   11.98664  -10.63394
       O    10.24999   12.38500  -11.41086
      H1    10.13680   11.82443  -12.21223
       H    11.64734   10.25374  -10.05306
       O    12.60788   10.40231  -10.22381
      H1    12.90899   10.77623   -9.41393
       H    18.52857   11.15805   -6.08655
       O    17.76878   11.66203   -6.43926
      H1    17.04319   11.48417   -5.85861
       H    12.07237   11.58403   -2.38876
       O    12.62234   10.82977   -2.61946
      H1    11.98077   10.13663   -2.74388
       H    10.39033    8.27164   -9.69516
       O    10.42163    8.36510  -10.63475
      H1    11.03792    7.67544  -10.89353
       H    14.45193   12.05368   -7.86696
       O    13.71885   11.42132   -7.86266
      H1    12.96345   11.86857   -7.50339
       H     8.20546    7.94180   -1.62796
       O     8.67328    7.71848   -0.80469
      H1     8.22211    6.99307   -0.32663
       H    11.41211   15.31308   -9.04932
       O    10.93461   15.07810   -8.26718
      H1    11.66870   15.11037   -7.66422
       H    12.38328   15.17556   -0.11598
       O    12.53737   14.59993   -0.89436
      H1    11.69204   14.69678   -1.43894
       H    18.71875    5.57899   -1.26820
       O    19.07499    6.48781   -1.14908
      H1    18.80543    7.07513   -1.88612
       H    10.25261    8.91293   -6.95913
       O    10.02404    9.05367   -7.88760
      H1     9.18471    8.59023   -8.10496
       H    11.76884    4.85613   -3.36457
       O    12.39124    4.69960   -4.11807
      H1    13.13162    5.32808   -3.92045
       H    16.71214    3.39340   -4.49095
       O    17.34654    3.89721   -3.97610
      H1    18.16261    3.71943   -4.46294
       H     7.85359    6.86168   -6.13997
       O     8.13321    6.05977   -6.66200
      H1     9.09073    6.09403   -6.49339
       H     9.92648   14.54615   -3.14519
       O    10.06720   14.50097   -2.18678
      H1     9.23881   14.24662   -1.74440
       H     7.81141    7.17689   -7.96416
       O     7.70306    7.85688   -8.67259
      H1     6.77922    8.14107   -8.46299
       H     5.70791   10.37317   -7.16648
       O     6.36081   10.73142   -6.48771
      H1     5.94355   10.81356   -5.63171
       H     9.53240   11.21496   -2.31632
       O     9.16479   11.59429   -1.49319
      H1     9.90489   11.69830   -0.84821
       H    15.30014    9.09065  -10.61806
       O    16.12821    9.43989  -10.92962
      H1    16.04918   10.17956  -11.58072
       H    15.67817   13.47072   -6.26759
       O    15.21507   13.73901   -7.09045
      H1    15.87784   14.21731   -7.58306
       H    16.79321    6.45109   -8.32678
       O    16.77723    6.96046   -7.53257
      H1    17.54993    7.52880   -7.52268
       H    13.91286   10.18170   -6.55869
       O    13.97925    9.82471   -5.70546
      H1    13.08788    9.79326   -5.37411
       H    10.67487   14.16436   -5.44543
       O    11.02356   14.67108   -4.75146
      H1    10.95800   15.57122   -5.07761
       H    11.07434    2.32599   -5.62572
       O    10.13486    2.69222   -5.75889
      H1    10.36485    3.63375   -5.98581
       H     6.05389    8.16771   -5.58148
       O     7.01069    8.29869   -5.65323
      H1     7.00125    9.18581   -6.01752
       H    17.76072    9.07153   -3.02617
       O    18.31556    8.36948   -3.41390
      H1    17.76929    7.80281   -3.89101
       H     6.32322    8.64842   -2.59799
       O     6.86350    7.95011   -3.05605
      H1     6.98596    8.15547   -3.99674
       H     7.84487   11.65211   -8.82825
       O     8.52757   11.09692   -9.23180
      H1     8.86305   10.38416   -8.66236
       H    12.07746   12.25021    0.93656
       O    11.37355   12.38857    0.29208
      H1    11.75024   13.14989   -0.20173
       H    11.30299   13.86005  -11.15658
       O    11.86722   14.59301  -10.86347
      H1    11.94290   15.14849  -11.68587
       H    15.69777    7.34435    0.03665
       O    14.77543    7.29706   -0.27463
      H1    14.66949    6.77032   -1.09949
       H    13.52440   10.07797   -0.94263
       O    14.39490    9.98820   -0.51806
      H1    14.61962    9.04900   -0.61909
       H    15.21274    6.31068   -3.56056
       O    14.39815    6.47383   -3.05169
      H1    14.20350    7.34639   -3.32052
       H    12.64676    6.63253   -9.16307
       O    12.00159    5.89847   -9.26345
      H1    12.53944    5.23192   -9.64748
       H    14.12651   13.26297   -0.69340
       O    14.55083   12.75992   -0.03466
      H1    14.28733   11.89177   -0.32381
       H    18.67903    8.63984   -8.57593
       O    19.01282    7.95060   -8.03763
      H1    19.15206    7.30197   -8.71824
       H    10.77017    7.81575   -5.08460
       O    11.04527    8.68935   -5.49549
      H1    10.50026    9.29770   -4.89649
       H    14.68884   17.83701   -4.18502
       O    15.07538   17.48561   -3.37306
      H1    15.08904   16.50784   -3.41870
       H    13.50611    4.39592   -1.10317
       O    12.86229    5.00054   -0.81946
      H1    13.16884    5.39073    0.02375
       H     9.68722    6.13789   -3.42671
       O     9.40272    6.92973   -3.88367
      H1     8.59653    7.19922   -3.45027
       H    14.10004   15.00342   -6.47550
       O    13.26192   15.45010   -6.60477
      H1    12.68136   15.17096   -5.88347

