177
frame 5 | Written by MDAnalysis XYZWriter (release 2.4.3)
       H   -13.20502  -11.62531    9.35046
       O   -13.41899  -12.23830    8.60859
      H1   -13.63936  -11.74450    7.81391
       H    -4.67474  -16.46298   10.41023
       O    -4.82800  -16.37787    9.42814
      H1    -4.45210  -17.26004    9.06104
       H    -9.14185  -18.98718    2.21022
       O    -9.29888  -19.62909    1.45696
      H1   -10.25874  -19.83358    1.58057
       H    -5.92258  -17.50019   12.68083
       O    -5.18441  -16.89800   12.50679
      H1    -4.42201  -17.19111   13.03578
       H    -5.72284  -17.52021    5.81071
       O    -4.91893  -16.91241    5.69731
      H1    -5.27079  -16.06809    5.41733
       H   -10.53311  -18.92528    5.44807
       O    -9.70074  -18.82650    5.04251
      H1    -9.25936  -19.67216    5.11819
       H   -10.18530  -17.02926    2.36031
       O    -9.36723  -17.26627    2.81485
      H1    -9.62380  -17.81550    3.60455
       H    -6.99425  -12.40556    5.62497
       O    -6.74559  -12.18603    4.70393
      H1    -7.60005  -12.45399    4.20472
       H   -10.20247   -9.70339    2.61382
       O   -10.70268   -9.48762    3.43372
      H1   -10.82921  -10.40866    3.80540
       H    -2.83025  -19.29847    2.53017
       O    -2.13750  -19.91163    2.78747
      H1    -1.82758  -19.57275    3.61935
       H   -15.47486  -18.19609   11.46935
       O   -15.50467  -17.73069   12.33119
      H1   -14.59311  -17.85043   12.55581
       H   -17.56892  -15.87093    5.14724
       O   -18.19079  -15.18872    4.85630
      H1   -19.02197  -15.61485    5.07356
       H   -10.29327  -10.91038   10.70237
       O    -9.99710  -11.51967   11.40100
      H1   -10.47015  -12.40258   11.22369
       H    -5.78500  -18.60333   -2.17869
       O    -6.59089  -18.80786   -1.64588
      H1    -7.06925  -17.92708   -1.68673
       H   -16.64205  -14.78517    3.01988
       O   -16.26426  -13.97353    2.55236
      H1   -16.12294  -13.35585    3.31093
       H    -9.06204  -13.91142    4.13396
       O    -8.98940  -13.14828    3.56219
      H1    -8.78191  -13.44537    2.64481
       H   -10.65863  -14.85166    8.39129
       O    -9.79133  -15.27348    8.73215
      H1   -10.14123  -16.18096    8.90215
       H   -16.67535  -18.30254    0.76385
       O   -16.09049  -17.66907    1.12308
      H1   -15.77334  -17.81528    1.99265
       H    -9.72670  -19.22455   -0.14932
       O    -9.84576  -18.85131   -1.11168
      H1   -10.73369  -19.13812   -1.43698
       H   -15.58740  -17.16556    4.29544
       O   -15.09119  -17.32116    3.48537
      H1   -14.85884  -18.28182    3.40898
       H   -14.91288  -13.67666    9.24379
       O   -15.75343  -14.17659    9.29477
      H1   -15.83495  -14.55105   10.22599
       H    -3.24350  -16.26016    7.14068
       O    -2.30053  -16.17814    7.28119
      H1    -2.09144  -16.86570    6.66359
       H   -12.25942  -17.20080   11.48390
       O   -12.72817  -17.19734   12.38907
      H1   -12.62608  -16.32308   12.79009
       H   -11.22425  -11.58190    5.22124
       O   -11.25765  -11.90423    4.30704
      H1   -10.44691  -12.42381    4.17274
       H   -15.09308  -13.07354    1.35428
       O   -14.56252  -12.54449    0.75284
      H1   -14.12188  -11.92463    1.27141
       H   -12.07286  -15.67694    2.02771
       O   -11.76015  -15.99952    1.16156
      H1   -11.86843  -15.18449    0.59689
       H    -9.46160  -16.22173    4.23598
       O    -9.44307  -15.54658    4.95762
      H1   -10.44608  -15.62991    5.22094
       H    -7.60217  -16.73866    2.75876
       O    -6.73789  -16.28053    2.75785
      H1    -6.62557  -15.95908    1.80626
       H    -5.34069  -12.19726    1.20866
       O    -5.29624  -12.40564    2.15708
      H1    -5.13294  -13.32685    2.26928
       H   -10.83461  -11.52553    7.00296
       O   -11.10556  -10.62249    6.69956
      H1   -10.34123  -10.17800    6.33850
       H    -7.27247  -18.53879    9.94028
       O    -8.15680  -18.33475    9.58861
      H1    -7.86775  -18.25223    8.64230
       H   -13.11667  -18.04681    7.33648
       O   -13.39308  -17.53223    8.05663
      H1   -14.05336  -18.02573    8.56250
       H    -2.33637  -17.13285    4.50041
       O    -1.98243  -17.77870    5.17139
      H1    -1.02835  -17.85829    4.95714
       H    -3.64480  -18.76206    7.50766
       O    -3.48083  -18.62211    8.46065
      H1    -2.57126  -18.39849    8.57852
       H    -2.91210  -14.71238    6.56913
       O    -3.28147  -13.90016    6.15188
      H1    -3.99723  -14.13531    5.51889
       H    -5.98761  -13.75040    4.27905
       O    -5.49286  -14.57157    4.31698
      H1    -6.00370  -15.16859    3.67704
       H    -8.42784  -17.99566    6.42116
       O    -7.56233  -17.99876    6.85880
      H1    -7.34854  -17.04053    7.06031
       H    -5.67923  -19.25791   -0.14027
       O    -4.92777  -19.66087    0.42556
      H1    -4.75129  -18.95852    1.07169
       H   -13.54788   -9.81930    2.66140
       O   -13.48821  -10.80821    2.63782
      H1   -12.74890  -10.90874    3.27452
       H   -10.39996  -14.57104   10.29846
       O   -10.87703  -13.98466   10.89132
      H1   -10.86737  -14.43009   11.73657
       H    -3.45644  -17.25827    2.46841
       O    -4.19153  -17.84668    2.41279
      H1    -4.91571  -17.28823    2.71282
       H   -15.11275  -12.03747    5.50302
       O   -15.64711  -12.74166    5.05729
      H1   -16.27867  -12.99823    5.77427
       H    -7.54059  -15.67874   -0.74968
       O    -7.12589  -15.15873   -0.04301
      H1    -7.60994  -14.34697    0.15474
       H   -16.15594  -18.96076    9.32353
       O   -15.28146  -18.80178    9.75622
      H1   -14.93453  -19.70269    9.95923
       H   -14.51736  -16.20962    7.64213
       O   -15.26037  -15.68424    7.21122
      H1   -15.57335  -15.09291    7.96597
       H    -7.88940  -15.29181    8.08826
       O    -6.96871  -15.41252    7.68692
      H1    -6.42869  -15.82460    8.36289
       H    -8.43989  -11.82736    1.31494
       O    -8.64122  -12.60830    0.80971
      H1    -9.24422  -12.21653    0.13902
       H   -16.88310  -18.28894    6.06489
       O   -16.71821  -17.40305    5.77561
      H1   -16.09421  -16.98376    6.40060
       H   -12.31575  -14.03789   -1.36067
       O   -11.87524  -13.76338   -0.56642
      H1   -12.68855  -13.34511   -0.18600
       H   -11.77135  -12.96021    7.91317
       O   -11.18852  -13.36834    7.28922
      H1   -11.77097  -13.89178    6.67131
       H    -9.17310  -17.41275   -1.59053
       O    -8.54408  -16.70653   -1.88313
      H1    -8.44326  -16.92718   -2.83199
       H   -13.73665  -13.91824    5.15157
       O   -13.32834  -14.53139    5.75342
      H1   -14.05418  -14.85588    6.26223
       H   -10.66065  -18.05924    9.69632
       O   -11.27328  -17.32347    9.69735
      H1   -11.96970  -17.48453    9.06743
       H    -6.92252  -13.53036    7.51502
       O    -6.71110  -12.60852    7.38091
      H1    -5.76184  -12.68032    7.47447
       H    -3.36126  -18.97045    5.44414
       O    -3.59072  -19.62333    6.06402
      H1    -2.75527  -20.13492    6.16733
       H   -11.93523  -19.47256   14.92382
       O   -11.60068  -19.46670   14.05346
      H1   -12.06865  -18.72694   13.64310
       H   -12.53188  -17.39690   -1.68483
       O   -12.01786  -17.21091   -2.46881
      H1   -12.15236  -17.99250   -3.01263
       H   -13.17323  -17.11533    3.71301
       O   -12.37894  -16.65084    3.86671
      H1   -12.72267  -16.07706    4.56483
       H   -12.85781  -17.22722    0.27535
       O   -13.50700  -17.87190   -0.06397
      H1   -14.28190  -17.52184    0.42897

