177
frame 8 | Written by MDAnalysis XYZWriter (release 2.4.3)
       H    17.47323  -14.05567   -6.59758
       O    17.10408  -14.34324   -7.44898
      H1    17.11629  -13.56877   -8.04814
       H    18.75996  -14.84874   -8.18341
       O    19.57209  -15.40426   -8.29062
      H1    19.33447  -16.19301   -8.84344
       H     8.61214  -18.02251   -5.16720
       O     7.99755  -18.47222   -5.74899
      H1     7.19243  -17.97630   -5.80792
       H    20.13336  -18.05504   -3.37261
       O    19.60745  -17.67263   -4.06894
      H1    18.80154  -17.39455   -3.65114
       H    16.85764  -14.54294   -0.23496
       O    16.98661  -13.69347   -0.63518
      H1    16.88193  -13.87817   -1.61232
       H     9.40263  -12.97957   -1.17745
       O     8.54819  -12.65869   -1.50343
      H1     8.69539  -12.06023   -2.21830
       H    11.31477  -14.40646    1.46708
       O    11.66948  -14.66367    2.34127
      H1    12.07512  -15.56108    2.34982
       H    13.99358  -16.55174   -2.43734
       O    13.44468  -15.76123   -2.63026
      H1    13.08491  -16.17078   -3.42188
       H    13.40257  -18.12526   -5.19910
       O    12.44392  -18.36228   -5.11392
      H1    12.07143  -17.87129   -5.82052
       H     8.48001  -16.19568   -0.53534
       O     8.86562  -15.52120   -0.00655
      H1     8.66752  -15.83604    0.87470
       H     8.23753  -14.11001   -2.54987
       O     8.22040  -14.76203   -3.23847
      H1     8.89082  -14.58457   -3.90241
       H    10.59653  -18.21327   -0.03824
       O    10.16488  -19.02533    0.23300
      H1     9.25511  -18.89965   -0.12743
       H     8.24128  -17.63737   -2.56433
       O     7.70815  -17.75695   -1.77056
      H1     6.95100  -17.14886   -1.82383
       H    17.62781  -12.04610   -4.46114
       O    16.98752  -11.47808   -3.90703
      H1    16.81659  -10.79148   -4.60186
       H     8.60761  -17.73472   -9.21252
       O     8.42331  -16.76926   -9.06212
      H1     7.63086  -16.68475   -9.57444
       H     6.01942  -16.60936   -6.00140
       O     5.44233  -17.31452   -5.67106
      H1     5.33042  -17.13779   -4.69679
       H    14.95051  -17.05080   -6.06940
       O    15.24168  -17.73738   -5.42095
      H1    15.39698  -18.45236   -6.08349
       H    14.49432  -18.43870   -1.63201
       O    15.00571  -17.63748   -1.72374
      H1    15.50975  -17.37242   -0.92397
       H    14.01605  -12.94345   -0.72795
       O    13.32434  -13.17890   -1.38059
      H1    13.42958  -14.09862   -1.60621
       H    11.39237  -13.42244   -9.85608
       O    10.45695  -12.99973   -9.94541
      H1    10.07817  -13.73844  -10.47956
       H    13.67320  -11.92120   -8.41800
       O    13.88924  -11.24236   -7.72604
      H1    14.77800  -11.64388   -7.59879
       H     7.39191  -14.46247    0.18735
       O     6.48147  -14.04155   -0.02217
      H1     6.65805  -13.21874   -0.51057
       H     6.76036  -15.08552   -7.34407
       O     7.29848  -15.67314   -6.82386
      H1     7.56236  -16.25738   -7.47895
       H    12.51910  -11.74422   -6.51393
       O    11.99230  -11.54439   -5.67636
      H1    11.08895  -11.50256   -5.96688
       H    12.79427  -19.86251   -8.67576
       O    13.54668  -19.34848   -9.08524
      H1    13.23793  -18.43965   -9.08128
       H     8.93428  -19.44845   -7.73465
       O     9.55235  -19.16875   -8.44773
      H1    10.10361  -19.94021   -8.51101
       H     6.47131  -15.75632   -3.26137
       O     5.72161  -16.29228   -3.09711
      H1     5.17265  -15.81804   -2.46557
       H    10.10251  -17.48943   -7.17041
       O    10.78993  -16.83043   -6.88623
      H1    10.30619  -16.12564   -6.52201
       H    14.53547  -18.67496  -11.33270
       O    14.67520  -17.74508  -11.54625
      H1    14.13499  -17.63185  -12.33111
       H     8.62404  -11.93600   -7.49498
       O     9.54213  -12.24519   -7.23102
      H1     9.85637  -12.62078   -8.04760
       H    13.57826  -16.09349   -8.53937
       O    12.77064  -16.32880   -8.95404
      H1    12.05566  -16.36836   -8.29242
       H     5.20593  -19.39402   -1.26174
       O     4.32034  -19.03769   -1.35988
      H1     3.86554  -19.71966   -1.83018
       H    16.82349  -14.99211   -3.53344
       O    17.12741  -14.12695   -3.30861
      H1    16.39586  -13.63205   -3.62325
       H    14.30548  -14.30429   -6.14451
       O    14.61014  -15.04403   -6.67076
      H1    15.43694  -14.68765   -7.09981
       H     9.94675  -15.52303  -11.90512
       O     9.42103  -15.16469  -11.16971
      H1     9.18116  -15.95050  -10.64533
       H     4.72214  -19.16136   -9.72695
       O     5.07284  -18.76446   -8.94905
      H1     4.27020  -18.39351   -8.58573
       H    12.99589  -14.82772   -9.67774
       O    13.28467  -13.93331   -9.82405
      H1    13.97652  -13.95949  -10.44836
       H    10.10569  -19.14807   -3.43587
       O     9.84806  -18.21701   -3.63717
      H1    10.80556  -17.97667   -3.64793
       H    13.13257  -12.54850   -4.62705
       O    13.82566  -13.20002   -4.50798
      H1    13.68511  -13.43099   -3.55327
       H    11.83600  -16.03966   -1.22426
       O    11.29827  -16.60486   -0.60516
      H1    10.50415  -16.03757   -0.50707
       H    11.69125  -12.60206  -11.37702
       O    12.12599  -11.96863  -11.98226
      H1    12.17565  -12.44118  -12.83185
       H    15.65605  -17.38544  -10.07106
       O    16.12107  -17.07514   -9.26172
      H1    15.99271  -17.83534   -8.65209
       H    17.40186  -16.77181    0.52381
       O    16.57083  -16.33768    0.31712
      H1    16.23879  -16.16673    1.24687
       H    19.84504  -13.07995   -5.23367
       O    18.85373  -13.09709   -5.13686
      H1    18.65195  -13.73602   -4.40471
       H     9.96060  -19.04291  -10.30676
       O    10.06757  -19.25495  -11.24680
      H1    11.01989  -19.45524  -11.41284
       H    14.04648  -17.75806    3.16098
       O    14.80837  -17.98205    3.80325
      H1    15.36966  -17.23874    3.93304
       H    12.13956  -17.38118    1.51165
       O    12.33447  -17.54375    2.41030
      H1    11.46755  -17.52112    2.82756
       H    17.24332  -11.27958   -8.77542
       O    16.55313  -11.93467   -8.82480
      H1    16.19336  -11.84579   -9.73682
       H    11.89280  -16.43338  -13.28099
       O    12.82102  -16.28320  -13.53113
      H1    13.00282  -15.31531  -13.55474
       H    19.89880  -17.23112    0.67837
       O    19.02992  -17.59293    0.76212
      H1    19.01544  -18.30538    0.14062
       H    10.90382   -9.16746   -7.73162
       O    10.13643   -9.49054   -7.31655
      H1    10.10930  -10.48370   -7.43765
       H    10.74835  -12.21148    0.20247
       O    11.02946  -13.11071   -0.01182
      H1    11.93242  -13.05961   -0.40431
       H    15.90466  -15.23195  -12.41926
       O    15.04617  -15.01052  -11.99248
      H1    14.89066  -15.74247  -11.41874
       H     9.72868  -18.11000    1.97456
       O     9.33667  -17.29848    2.27769
      H1     9.20438  -17.33683    3.25329
       H    16.37436  -17.29156   -4.21589
       O    16.93911  -16.95175   -3.47207
      H1    16.56261  -17.23920   -2.65636
       H     8.60643  -14.74074   -6.09446
       O     9.48515  -14.60924   -5.78865
      H1     9.70573  -13.69803   -6.02071
       H    12.89253  -11.35462   -2.22656
       O    12.50907  -10.46622   -2.44733
      H1    11.61109  -10.58449   -2.78982
       H    17.22528  -15.91577  -10.64709
       O    18.00419  -15.85685  -11.26696
      H1    18.04310  -16.73634  -11.76143
       H    10.06381  -17.99867  -12.58831
       O    10.00189  -17.07523  -12.95972
      H1     9.77737  -17.30974  -13.85964

