177
frame 10 | Written by MDAnalysis XYZWriter (release 2.4.3)
       H    15.36355  -11.92258   12.60677
       O    15.40353  -12.52378   13.43796
      H1    14.97833  -12.02838   14.12761
       H    13.20089  -14.81031   11.91222
       O    12.54410  -14.89637   11.16804
      H1    11.94813  -15.51952   11.62216
       H     7.02349  -18.21945   14.45726
       O     6.76601  -17.30346   14.21776
      H1     5.85236  -17.15229   14.39355
       H     7.40530  -17.70082   17.40850
       O     8.26072  -17.21359   17.30364
      H1     8.04998  -16.56928   16.66131
       H     8.58227  -13.32124   12.55350
       O     9.31802  -13.86475   12.93512
      H1     8.93244  -14.32676   13.70155
       H    17.41020  -14.12898   17.46929
       O    16.89667  -14.91380   17.60705
      H1    17.45607  -15.65752   17.97641
       H    13.50191  -18.54489   11.37444
       O    13.53864  -19.08747   12.20555
      H1    13.21624  -19.99738   11.98289
       H    14.39153  -18.73041   15.73474
       O    14.52072  -18.00839   16.31657
      H1    13.75572  -17.46447   16.30457
       H     7.94444   -7.10347   19.70400
       O     8.70474   -7.73684   19.77665
      H1     8.54613   -8.41380   19.10115
       H     8.49457  -16.26022   19.09328
       O     9.11465  -16.29629   19.79672
      H1     9.53008  -15.39755   19.73292
       H    11.80512  -14.71634   14.27044
       O    11.41328  -14.56924   15.11605
      H1    10.67768  -15.19560   15.33485
       H     4.53577  -14.80071   19.19236
       O     4.95040  -15.65881   19.09111
      H1     5.77569  -15.29614   18.70552
       H    11.45192  -12.79438   14.66982
       O    11.40528  -11.81485   14.63693
      H1    11.51335  -11.56742   13.69049
       H     4.61766  -14.06739   11.00186
       O     5.23941  -14.47916   11.67236
      H1     5.74246  -15.13550   11.15326
       H    17.53045  -16.84447   13.60896
       O    17.80024  -17.20921   12.73630
      H1    18.55318  -17.81030   12.89277
       H    11.19866  -17.78458   13.18690
       O    11.61616  -18.27913   13.93118
      H1    12.31947  -18.77992   13.49074
       H    13.05955  -10.93623   15.15302
       O    14.00132  -10.73081   15.22678
      H1    14.25288  -10.23281   15.99931
       H     9.05980   -9.59266   13.01880
       O     9.17761   -8.67340   12.73981
      H1     9.53043   -8.71332   11.82994
       H    18.33083  -17.09388   19.58708
       O    18.40148  -17.23803   18.65286
      H1    19.37101  -17.44248   18.54667
       H     9.93149  -11.82981   15.85091
       O     9.07263  -11.94701   16.29753
      H1     9.21735  -12.56607   17.00768
       H     9.98732  -10.74861   17.36925
       O    10.82828  -10.32866   17.67941
      H1    10.84472  -10.55976   18.64492
       H     9.28333  -18.47562   10.38434
       O     8.64647  -19.09503   10.73393
      H1     9.14102  -19.38970   11.54733
       H    10.32868  -13.45949   19.63152
       O    10.18966  -13.83190   18.71856
      H1    11.13248  -13.78422   18.32740
       H    17.75384  -18.80764   18.79041
       O    17.52613  -19.73443   19.15400
      H1    17.28188  -20.22728   18.39027
       H     8.12687  -16.02138   11.18917
       O     8.89763  -15.50333   10.84530
      H1     9.05514  -14.83038   11.56341
       H    16.15878  -12.44245   17.02937
       O    17.15696  -12.36255   16.99937
      H1    17.34859  -11.93234   16.15727
       H     6.67532  -11.69646   19.12084
       O     6.51120  -11.60473   18.12725
      H1     7.00227  -10.82429   17.84840
       H    17.64594  -13.87124   15.62346
       O    18.32801  -14.28423   15.10319
      H1    18.08725  -14.45823   14.16870
       H     2.67823  -19.97157   16.01772
       O     3.55005  -19.77309   15.58659
      H1     3.46166  -18.90123   15.18295
       H    10.94887  -11.71564   11.54091
       O    11.18270  -10.91191   12.09933
      H1    12.09025  -10.59784   11.77658
       H     7.67130  -15.99480   14.94653
       O     8.16475  -15.19711   15.19477
      H1     7.78719  -14.76986   16.04683
       H    11.56019  -17.16501   10.73560
       O    10.97819  -17.05812   11.46685
      H1    10.17904  -16.63754   11.05700
       H     0.15847  -15.96221   19.73301
       O     0.15093  -15.73041   18.76020
      H1     1.01285  -16.04187   18.40418
       H    11.10054  -18.03735   18.14024
       O    11.37128  -17.63506   18.94296
      H1    10.67701  -16.97813   19.10748
       H    16.77872  -18.71743   12.85523
       O    16.11142  -19.40510   12.92836
      H1    15.29625  -18.98183   12.55024
       H    14.62763  -15.67251   13.77287
       O    13.98489  -15.03662   13.43492
      H1    14.34578  -14.20637   13.62501
       H    14.60777  -10.58384   18.76937
       O    15.27466  -10.28941   18.11057
      H1    16.10794  -10.46380   18.50214
       H    13.40225   -9.27265   18.06436
       O    13.06229   -8.38586   17.98269
      H1    12.15232   -8.43957   17.92782
       H     3.20271  -10.88318   16.65623
       O     3.66206  -11.75969   16.63872
      H1     4.46224  -11.58615   17.11537
       H     7.53747  -12.02486   12.54238
       O     7.47924  -12.43876   11.64406
      H1     6.67161  -12.97552   11.69522
       H    13.33559  -14.11605   17.91517
       O    12.62938  -13.50750   17.75845
      H1    12.50462  -13.51378   16.79482
       H     2.80163  -16.80745   12.18853
       O     2.91315  -16.14311   12.86750
      H1     3.70257  -15.66173   12.54042
       H    14.82897  -15.77247   19.66919
       O    14.58250  -15.08733   19.02040
      H1    15.42627  -15.03949   18.56888
       H     4.98477  -17.28521   18.18698
       O     5.51632  -18.08997   17.95503
      H1     4.84221  -18.70686   17.63710
       H     9.71998  -18.17893   16.71039
       O    10.51164  -18.75831   16.61028
      H1    10.82147  -18.67095   15.70994
       H    13.73043  -16.25277   10.86011
       O    13.95518  -17.00952   10.32668
      H1    13.58746  -16.79098    9.42611
       H    11.20812  -12.68794    9.06644
       O    11.49903  -12.56394   10.03141
      H1    11.72892  -13.48186   10.30894
       H    16.68450  -13.54095   12.80833
       O    17.22534  -14.35284   12.53418
      H1    16.85759  -14.72820   11.75247
       H     2.51985  -17.17991   18.52106
       O     2.50276  -16.59269   17.71055
      H1     2.42760  -17.11680   16.89693
       H     4.11456  -12.42539   14.47570
       O     3.96070  -13.25896   14.05826
      H1     4.48829  -13.30360   13.29242
       H    16.97958  -15.75226   15.62437
       O    16.39510  -16.36532   15.21152
      H1    16.05902  -16.95402   15.93095
       H     7.55366   -8.18472   17.37791
       O     7.69709   -9.08430   17.70919
      H1     8.59106   -9.21745   17.38547
       H     6.87813  -13.31101   17.60975
       O     6.92496  -14.29277   17.39458
      H1     6.04691  -14.58474   17.01089
       H     7.65110  -11.38956   15.13373
       O     7.38453  -11.14033   14.23115
      H1     6.55529  -10.60927   14.31925
       H     3.60871  -14.70362   16.93602
       O     4.38579  -14.84151   16.34365
      H1     4.24003  -14.26996   15.56785
       H    19.20852  -10.50781   18.88271
       O    18.27142  -10.61626   18.74533
      H1    18.06146  -11.38136   18.20279
       H     7.30647  -17.83845   11.44878
       O     6.72669  -17.02407   11.57584
      H1     6.64260  -16.89202   12.55493
       H    14.35524  -18.60902   18.46730
       O    13.86993  -18.93655   19.20486
      H1    13.07553  -18.32554   19.25512
       H     4.14968  -16.50175   15.75776
       O     4.14926  -17.15087   15.02328
      H1     3.63945  -16.63428   14.35305

