177
frame 12 | Written by MDAnalysis XYZWriter (release 2.4.3)
       H    17.59303   -0.71313   12.48307
       O    16.94210   -0.32556   13.14229
      H1    17.36716   -0.17648   14.02436
       H    18.68873    4.71417    6.74389
       O    18.07489    4.13504    6.19577
      H1    17.18139    4.31498    6.65021
       H    18.98869    4.69816   11.32514
       O    19.93852    4.62731   11.51069
      H1    20.03067    4.12102   12.32231
       H    15.06194   -1.34068   19.21295
       O    15.17886   -0.61562   18.59335
      H1    15.18120   -0.87025   17.67929
       H    17.88466   -2.66476   11.62694
       O    18.38317   -1.82007   11.57368
      H1    19.13500   -1.95119   12.13619
       H    16.29876    3.15326    8.61292
       O    15.88192    3.73651    7.91836
      H1    15.31003    4.36693    8.37922
       H    18.63888    0.79336   16.05601
       O    18.27744    0.09252   15.53366
      H1    18.06249   -0.72428   16.03889
       H    13.37059   -6.95826    8.61324
       O    14.03574   -6.95487    7.93306
      H1    13.79716   -6.21722    7.38985
       H    18.53023   -8.17789   10.01980
       O    19.07803   -8.60341   10.69606
      H1    18.49351   -9.25522   11.16767
       H    17.15875  -11.19768   10.93603
       O    17.14022  -10.24914   11.10710
      H1    16.53848  -10.20191   11.89054
       H    18.46743    6.74414   10.97081
       O    17.87239    6.64149   10.20272
      H1    18.42731    6.98776    9.39799
       H    13.06444    1.70369   12.75031
       O    12.43944    2.40976   12.94090
      H1    11.57446    2.02372   12.74073
       H    19.08387   -6.24652    7.01638
       O    19.37408   -6.00586    6.12906
      H1    18.74057   -6.45703    5.56080
       H    16.64116   -1.88704    8.50455
       O    17.00310   -1.02757    8.70327
      H1    16.76527   -0.59090    7.84560
       H    12.10689   -6.62849   14.51573
       O    12.65520   -7.24153   14.06224
      H1    12.12254   -7.78104   13.50204
       H    17.15105    3.19021   14.35401
       O    17.07257    3.60660   15.23975
      H1    16.13086    3.70509   15.48073
       H    15.63041   -0.96969    9.92178
       O    14.77683   -1.02172   10.42656
      H1    14.34336   -0.22463   10.10651
       H    15.23900    0.06997   13.08565
       O    14.30550    0.33232   13.15589
      H1    13.84549   -0.24203   12.54650
       H    19.00054    1.57602    8.18530
       O    19.03177    1.51135    7.24226
      H1    18.65683    2.37246    6.80512
       H    14.34107   -7.70316   16.97383
       O    14.67118   -7.40027   16.10910
      H1    13.92328   -7.32985   15.56193
       H    13.39526   -1.91730   17.45295
       O    13.74830   -2.59676   16.84911
      H1    14.27020   -3.17480   17.41423
       H    16.22410   -3.06851    4.01679
       O    16.29632   -4.02319    3.80004
      H1    16.10255   -4.58217    4.59188
       H    14.22326   -2.79167    7.23182
       O    14.85206   -2.41872    6.62134
      H1    14.42865   -2.26290    5.76291
       H    19.88140   -3.90039   18.49574
       O    19.68339   -2.95528   18.40542
      H1    19.32397   -2.68144   19.29432
       H    19.41713  -10.03013   14.46620
       O    18.52278  -10.32450   14.17931
      H1    17.99813   -9.53092   14.12538
       H    17.50110    1.98494   10.23209
       O    16.66198    2.51830   10.22865
      H1    16.06163    1.78288   10.40668
       H    16.01997   -5.27327    9.68707
       O    15.73706   -4.33626    9.57180
      H1    15.88984   -3.88630   10.41972
       H    18.48601    0.19127    9.59245
       O    18.90621    0.95072    9.99364
      H1    19.39716    0.67640   10.75287
       H    15.56411   -1.10355    5.97243
       O    15.96070   -0.33098    5.52714
      H1    15.24880    0.12995    5.01627
       H    19.13350   -3.30039   10.25976
       O    19.68288   -3.53736    9.49979
      H1    19.57144   -3.05465    8.67237
       H    11.89643   -5.36276   16.43173
       O    11.65075   -5.14889   15.49077
      H1    12.28586   -4.42704   15.17720
       H    16.98781   -5.14734    6.05210
       O    16.06313   -5.39414    6.16727
      H1    15.87574   -4.75024    6.89049
       H    17.83229   -3.55942   16.22986
       O    17.08300   -2.97756   16.38380
      H1    16.63951   -2.87290   15.52238
       H    13.92542   -4.77103   12.75685
       O    13.31835   -5.43016   12.35406
      H1    13.21890   -6.11369   13.07800
       H    18.28697   -8.77212   18.42401
       O    18.35576   -7.91997   17.93139
      H1    19.11859   -7.50513   18.25370
       H    17.17369    2.58483   11.84823
       O    17.46695    2.44927   12.76838
      H1    17.25676    1.50659   12.97317
       H    12.63534   -0.61821    6.70153
       O    12.17140   -0.08753    7.45735
      H1    11.52665   -0.73391    7.83822
       H    17.94250   -8.41367    6.65889
       O    17.07375   -8.09455    7.03480
      H1    16.90350   -7.27658    6.64397
       H    18.03282    1.77695    4.24074
       O    18.83810    1.32050    4.48728
      H1    18.76039    1.20925    5.46827
       H    14.20333    4.83587   13.89379
       O    14.15194    5.20152   12.95488
      H1    13.50382    4.57830   12.52772
       H    12.41844   -6.22262   18.54791
       O    12.59284   -5.36261   18.09091
      H1    13.56063   -5.27672   17.94710
       H    18.52385   -6.64513    9.26694
       O    19.40339   -6.33719    8.94024
      H1    19.36721   -5.34480    9.15609
       H    12.59646   -2.48988   13.76675
       O    13.17661   -3.10910   14.28805
      H1    13.18380   -2.75296   15.18952
       H    17.29348   -7.14408   14.07689
       O    16.77373   -7.96755   14.09168
      H1    15.98175   -7.84564   14.64756
       H    15.26444   -5.54553   16.81505
       O    15.22165   -4.82448   17.46988
      H1    15.91628   -4.20793   17.27324
       H    17.27775   -4.80400   12.44553
       O    16.87305   -3.99370   12.08109
      H1    16.45635   -3.42699   12.82829
       H    13.93428    2.89464   15.01212
       O    14.09339    3.80038   15.23924
      H1    13.52375    4.06711   15.95285
       H    19.09165   -6.44748   12.90811
       O    18.49927   -5.91668   13.45139
      H1    19.02287   -5.40987   14.06957
       H    12.47420    0.18626   16.21879
       O    13.29881    0.50587   15.94998
      H1    13.38467    0.14053   15.02305
       H    14.89867   -2.52909   14.06023
       O    15.87185   -2.60972   13.99907
      H1    16.16230   -1.68455   13.71957
       H    12.70542   -4.27190    9.23020
       O    13.32419   -4.08569    8.50119
      H1    14.17395   -4.39159    8.90246
       H    16.83722    5.50424   14.91181
       O    16.67924    6.41930   15.10692
      H1    16.28802    6.75323   14.28856
       H    13.51028    2.34704    9.68556
       O    13.70978    1.40835    9.66123
      H1    13.37465    1.07315    8.83951
       H    14.89633   -6.86222   11.71648
       O    15.06595   -7.83422   11.76670
      H1    15.73657   -7.86044   12.44434
       H    16.55597   -7.63510    8.63324
       O    16.77522   -7.23703    9.50204
      H1    16.49459   -7.90362   10.08584
       H    17.08477   -6.74808   18.99281
       O    16.89528   -5.99556   19.56999
      H1    16.09085   -5.55807   19.25040
       H    10.67940   -3.93831   11.02918
       O    11.53234   -4.16874   10.66872
      H1    12.03941   -4.66863   11.36120
       H    11.39143   -0.74106   11.82727
       O    12.17914   -1.30599   11.96075
      H1    12.65103   -1.39952   11.12547
       H    19.85287    2.60186   16.76677
       O    19.67142    3.10741   15.94190
      H1    18.74098    3.29768   15.80974

