177
frame 1 | Written by MDAnalysis XYZWriter (release 2.4.3)
       H   -14.91242   -6.35110   10.31570
       O   -15.85989   -6.59702   10.13036
      H1   -16.19687   -5.74420    9.81287
       H    -5.15381   -8.61798    5.08785
       O    -5.66743   -7.93810    4.61438
      H1    -6.59773   -8.24086    4.82007
       H    -7.18284   -8.13918    2.13033
       O    -8.10411   -7.83407    2.01475
      H1    -8.20166   -7.94300    1.01972
       H   -13.60949    0.71483    5.64327
       O   -14.34549    0.42071    5.11280
      H1   -15.16562    0.83999    5.29483
       H   -16.06043   -8.70279    3.89264
       O   -15.44265   -8.77257    3.11213
      H1   -15.89487   -8.19844    2.45504
       H    -6.80248   -5.30394    5.59838
       O    -7.77618   -5.25442    5.71983
      H1    -8.10351   -4.98426    4.87972
       H    -9.68960   -1.54531    2.34684
       O    -8.68650   -1.64795    2.28572
      H1    -8.51554   -0.91400    2.87431
       H   -14.54924   -8.07821    7.58437
       O   -15.43917   -8.22731    7.98138
      H1   -15.62183   -7.54921    8.62500
       H    -9.51691   -7.90175    3.07864
       O   -10.08085   -8.04974    3.86603
      H1   -10.71122   -8.73393    3.51610
       H   -11.84392   -3.53743   -1.18657
       O   -11.44966   -2.63162   -1.16173
      H1   -11.56276   -2.44116   -0.22428
       H    -9.86178   -4.49237    2.55134
       O    -9.30411   -4.11729    3.26168
      H1    -8.93043   -3.30601    2.94032
       H   -12.20666   -6.45569   11.16974
       O   -11.49131   -6.97404   11.59790
      H1   -11.02779   -7.43006   10.85509
       H   -11.42336    1.06781    2.65310
       O   -11.73926    1.71471    2.01300
      H1   -11.09533    1.68301    1.28050
       H   -14.03574   -0.13170    3.35523
       O   -13.92354   -0.51560    2.43661
      H1   -14.40106   -1.36400    2.48554
       H   -13.49485   -4.31551    9.83380
       O   -13.29818   -5.23692    9.87462
      H1   -13.42013   -5.50149    8.98676
       H   -11.30578   -1.00917    4.50931
       O   -11.14647   -0.05409    4.46286
      H1   -10.19848   -0.00840    4.42138
       H   -14.93802   -0.00554   -0.12774
       O   -15.35168    0.51563    0.50603
      H1   -14.87549    0.07673    1.23171
       H   -10.38531   -3.26196    4.49635
       O   -11.04905   -2.83737    4.94717
      H1   -11.44561   -3.64347    5.33713
       H    -8.91956   -4.57590   12.44999
       O    -8.65914   -3.68208   12.12465
      H1    -8.25372   -3.81599   11.27979
       H    -4.96524   -6.32950    5.00598
       O    -4.98829   -5.43324    5.27255
      H1    -4.78073   -4.95386    4.45654
       H    -8.39342   -3.27639    6.03289
       O    -8.87050   -2.62739    6.54234
      H1    -9.78540   -2.63283    6.26484
       H    -9.08572   -6.49683   -0.91856
       O    -9.14650   -5.54337   -0.64069
      H1    -8.29578   -5.31111   -0.26430
       H   -15.26066    1.03967    9.13109
       O   -14.34810    1.31803    8.85096
      H1   -13.85279    0.50360    8.68421
       H   -14.46597   -3.66600    3.44325
       O   -14.68345   -3.06251    2.71614
      H1   -14.37561   -3.50548    1.92304
       H    -4.73907   -0.92710    7.23262
       O    -5.58280   -1.29417    6.96365
      H1    -6.21733   -0.57005    7.18364
       H   -11.59522  -10.08529    5.30174
       O   -11.87928  -10.08237    4.40405
      H1   -11.33181  -10.70661    3.91288
       H   -10.02243  -11.46514    6.29091
       O   -10.02301  -10.57533    6.66307
      H1    -9.39659  -10.02000    6.17500
       H   -13.68872   -5.41810    5.02833
       O   -14.21735   -4.64444    5.05622
      H1   -14.01764   -4.12903    5.80468
       H    -7.64827   -9.99007    4.87129
       O    -7.94014   -9.09591    5.23784
      H1    -8.65931   -8.74972    4.71419
       H   -17.13302   -1.51828    7.20766
       O   -16.70217   -1.87307    8.02079
      H1   -15.81173   -2.00589    7.69862
       H   -10.84987    0.82120    5.97569
       O   -10.56196    1.42433    6.63639
      H1   -11.32926    2.03529    6.75929
       H   -11.58105   -1.32769    8.41371
       O   -12.08742   -0.49445    8.22650
      H1   -11.43307    0.19234    8.19369
       H    -9.19247   -6.21499    6.79772
       O   -10.08397   -6.56224    6.65215
      H1   -10.02426   -6.75346    5.73821
       H   -13.64633   -2.77041   11.54876
       O   -14.08695   -2.91271   10.67160
      H1   -15.03751   -2.70203   10.90312
       H    -8.11568   -1.90819    9.61637
       O    -7.87695   -2.86308    9.53016
      H1    -7.05740   -3.01479    9.09972
       H   -11.97174   -8.20906    6.97029
       O   -12.81483   -8.21689    6.57138
      H1   -12.78236   -7.61193    5.80077
       H    -8.32826    0.18872    5.17911
       O    -8.51351    0.21739    4.23454
      H1    -8.00876    1.05981    4.03575
       H   -11.48101   -2.74791    1.68554
       O   -11.41404   -1.79401    1.71060
      H1   -12.31612   -1.49808    1.84917
       H   -11.59402   -5.48093    1.23948
       O   -10.95465   -4.76810    1.28697
      H1   -10.34492   -5.03207    0.54561
       H   -16.86210   -4.29849    4.47365
       O   -17.02444   -4.09015    3.51996
      H1   -16.24660   -3.68392    3.12683
       H    -7.60265   -2.21882   -0.79693
       O    -7.62471   -1.53471   -0.11763
      H1    -7.84181   -1.90905    0.75327
       H    -5.76890   -4.59270    2.03910
       O    -4.96090   -4.26669    2.43318
      H1    -4.88788   -3.38537    2.09778
       H   -17.38123   -0.29859    5.07610
       O   -17.50374   -1.26251    5.21383
      H1   -17.06153   -1.81552    4.54367
       H   -13.50943    2.35796    7.32090
       O   -12.89403    2.84988    6.74171
      H1   -13.38127    3.20778    5.96698
       H   -17.55768   -4.34703    9.75924
       O   -16.88825   -4.25241    9.04812
      H1   -16.97736   -3.30782    8.66825
       H   -11.94659   -7.14015    3.69474
       O   -12.67137   -6.82314    4.30136
      H1   -13.50982   -7.07275    3.82539
       H    -8.54132    0.44995    7.40804
       O    -7.87438   -0.08403    6.93938
      H1    -8.19230   -0.99529    6.99787
       H    -5.69225   -2.80703    7.82710
       O    -5.72996   -3.70751    8.25762
      H1    -5.92486   -4.31795    7.55041
       H   -10.08139   -2.23787   11.49283
       O   -10.80559   -1.71283   11.27453
      H1   -10.47278   -0.83209   11.42822
       H    -9.07762   -0.03417   10.60509
       O    -8.41634   -0.22785    9.92541
      H1    -7.59415    0.11233   10.19259
       H    -9.64073   -8.34954    9.15952
       O   -10.54424   -7.98262    9.12072
      H1   -10.41347   -7.41813    8.32246
       H   -15.92374   -5.11325    5.85346
       O   -16.79817   -4.89278    6.17825
      H1   -16.75119   -4.89594    7.16766
       H   -11.26320   -5.28711    7.01273
       O   -12.13859   -4.85679    7.23218
      H1   -11.89874   -4.22066    7.91492
       H   -14.24573   -1.54989    5.92391
       O   -14.23345   -2.00632    6.81084
      H1   -13.38267   -1.90768    7.24840
       H   -13.84343   -6.92034    0.82621
       O   -12.94790   -6.64156    1.01822
      H1   -12.55539   -7.20614    0.31003
       H   -13.98878   -4.32846   -0.53890
       O   -14.27267   -3.73222    0.17320
      H1   -15.11798   -3.27576   -0.08021
       H    -9.38392    0.07860    0.49760
       O    -9.51369    1.03969    0.45956
      H1    -8.74237    1.35206    1.01488
       H   -10.90676   -2.71021    9.65985
       O   -10.80779   -2.89140    8.72719
      H1    -9.85321   -2.94127    8.56110
       H    -7.67171   -5.83842    1.57123
       O    -7.02689   -5.28701    1.06902
      H1    -6.31164   -5.88079    0.81752

