177
frame 5 | Written by MDAnalysis XYZWriter (release 2.4.3)
       H     8.84468   -1.81453   -1.17349
       O     8.45186   -2.24622   -1.93012
      H1     9.05374   -3.03673   -2.01507
       H    11.75171   -2.23814   -0.19819
       O    11.84560   -2.27571   -1.20366
      H1    12.75543   -2.67070   -1.39786
       H    12.30610   -5.71115    3.30452
       O    13.04621   -5.66613    3.94789
      H1    13.78327   -6.10821    3.59959
       H    13.36125  -10.80481   -0.40909
       O    12.71712  -10.14185   -0.78170
      H1    11.98807  -10.63414   -1.13384
       H     6.72574   -2.47790    1.00411
       O     6.82376   -3.10244    0.30066
      H1     7.22884   -2.65459   -0.46478
       H    16.30055   -4.96900   -3.77055
       O    17.21103   -5.03038   -3.35580
      H1    16.93881   -5.11243   -2.44435
       H    14.05666   -2.70505   -2.76987
       O    14.15849   -3.36814   -2.06407
      H1    13.67204   -4.13556   -2.44462
       H    12.54529    0.05043   -7.50128
       O    13.05529   -0.68163   -7.87821
      H1    12.91746   -0.56172   -8.87986
       H    16.91885    1.53452    1.69661
       O    17.30015    2.30858    1.35854
      H1    18.23195    2.18039    1.21795
       H    19.42368   -5.83411   -0.60846
       O    18.45779   -5.74411   -0.83564
      H1    18.30681   -4.91676   -0.40907
       H    16.24817   -6.45234    3.82878
       O    15.43817   -6.89085    4.09863
      H1    15.64438   -7.43753    4.93365
       H    15.02719    0.35791   -1.63332
       O    15.83918   -0.20962   -1.77879
      H1    15.78531   -0.59499   -2.64767
       H    12.20059   -4.26836   -0.31506
       O    12.14527   -4.97740    0.36318
      H1    12.85087   -5.57079    0.19915
       H    13.75092   -3.81788    4.34280
       O    13.92686   -3.06401    4.90102
      H1    14.92547   -3.04339    4.94196
       H    14.78462    0.55199    0.02911
       O    14.01906    1.16726   -0.05939
      H1    14.33521    1.97417    0.38705
       H    16.45733   -0.08281    3.38501
       O    16.42338    0.05438    2.44981
      H1    15.99351   -0.66209    1.98065
       H    11.81422   -1.64668    2.03013
       O    11.16394   -2.02434    1.46457
      H1    11.03711   -2.94314    1.73319
       H    14.19518   -9.40588   -1.52178
       O    14.88089   -9.26580   -2.19827
      H1    15.46220   -8.56745   -1.93783
       H    11.06022   -7.25673   -0.30317
       O    10.16562   -7.17006   -0.60620
      H1     9.92764   -7.75029   -1.35559
       H     9.33701   -6.80965   -4.68834
       O    10.20319   -7.21990   -4.66328
      H1    10.27382   -7.52080   -5.56047
       H    16.90132   -3.08221    0.01048
       O    16.23623   -3.74133   -0.09359
      H1    15.55809   -3.39726   -0.69220
       H    12.36094   -8.72243   -4.12781
       O    13.03179   -8.10344   -3.87651
      H1    13.60971   -8.64316   -3.31452
       H    10.44882    1.08751   -1.56944
       O     9.74757    1.68865   -1.25585
      H1     9.04125    1.62983   -1.90654
       H     8.00751   -2.59544   -5.58883
       O     8.91600   -2.30447   -5.77328
      H1     9.06365   -1.44804   -5.20385
       H    12.92664    0.27486   -1.51474
       O    12.19106    0.34405   -2.10791
      H1    11.65499   -0.51221   -1.96390
       H    19.75745   -3.45381    3.85414
       O    18.83902   -3.53209    3.46358
      H1    18.18121   -3.03026    3.97657
       H    14.09675   -4.54919   -5.44392
       O    14.63789   -5.07188   -4.87078
      H1    14.02086   -5.57837   -4.32068
       H    13.99926   -7.94710   -5.63921
       O    14.63901   -7.78553   -6.34568
      H1    14.83054   -6.84318   -6.19015
       H    11.29453   -4.69390    1.81793
       O    10.75345   -4.50916    2.64074
      H1    10.03054   -5.05503    2.41508
       H    12.42263    1.45644    1.13993
       O    11.76692    1.89659    1.66502
      H1    11.51059    2.73177    1.25802
       H    13.34156   -1.50110    3.98062
       O    13.04187   -1.02856    3.21362
      H1    12.71824   -0.20682    3.56268
       H    18.05890   -4.93617   -7.62684
       O    18.75776   -5.56574   -7.83991
      H1    19.05970   -6.07885   -7.05415
       H    16.74407    2.78861   -0.40843
       O    16.26136    3.14252   -1.18932
      H1    16.89281    3.01851   -1.92765
       H    13.77116    2.17377   -4.54998
       O    13.11949    1.47375   -4.88464
      H1    12.55826    1.40801   -4.07905
       H    17.82998   -2.71945   -4.29237
       O    17.72379   -2.53119   -5.20548
      H1    17.13721   -1.82898   -5.26868
       H    12.37458   -4.43290   -8.65122
       O    13.28405   -4.15907   -8.58087
      H1    13.44405   -3.82584   -7.70030
       H    15.39118   -6.94365    0.51869
       O    14.71879   -6.27444    0.64636
      H1    15.21998   -5.49344    0.56253
       H     9.78479   -5.35516   -1.37882
       O     9.74904   -4.66642   -2.04394
      H1    10.52280   -4.85302   -2.63269
       H    15.04091   -2.68713    0.86615
       O    14.81054   -1.73403    1.04275
      H1    14.06372   -1.73339    1.64926
       H    18.96903   -6.84454    2.74638
       O    18.46917   -6.30509    3.41723
      H1    18.47064   -5.44422    2.94906
       H    19.34685   -2.73400    0.23795
       O    19.03757   -3.52968    0.74272
      H1    18.90388   -3.11041    1.62605
       H    12.31855   -3.15306   -6.14934
       O    13.21392   -2.79316   -6.21230
      H1    13.11446   -2.06881   -6.85889
       H    11.98661    1.51020   -6.45326
       O    11.52376    1.52210   -7.31352
      H1    12.21773    1.92644   -7.86107
       H    19.11698   -7.59437   -2.65775
       O    18.51164   -7.42834   -3.32893
      H1    18.06668   -6.56432   -3.14200
       H    19.63552   -0.57700   -4.46455
       O    19.08326   -0.11681   -3.80415
      H1    18.23842    0.15025   -4.21774
       H    15.65885    0.02105   -6.09744
       O    15.95959   -0.30567   -5.21472
      H1    15.10750   -0.40897   -4.79915
       H    11.49548   -6.05005   -3.36216
       O    11.74144   -5.11940   -3.59308
      H1    11.24539   -4.88490   -4.36770
       H    13.07677   -0.83404   -3.87909
       O    13.87680   -1.38331   -4.02330
      H1    13.62780   -1.92392   -4.78878
       H    13.04978   -7.38637    1.07651
       O    12.25503   -7.90773    1.13178
      H1    12.42979   -8.77852    0.88244
       H    15.83000    0.64369   -8.44402
       O    15.19505    0.88117   -7.73867
      H1    14.44096    0.30565   -7.90353
       H    16.25943   -8.91245   -4.93702
       O    16.92833   -9.42588   -4.53513
      H1    17.39163   -8.76677   -3.97590
       H     9.09665   -6.60712    0.81320
       O     8.98161   -6.58818    1.75706
      H1     8.07995   -6.32950    2.00894
       H    17.43610   -7.36965   -0.58923
       O    16.69987   -7.97698   -0.25220
      H1    17.04296   -8.26863    0.61747
       H     9.09269   -0.05181   -3.83202
       O     9.83629   -0.63338   -3.72508
      H1     9.36454   -1.23272   -3.07852
       H     9.81935   -3.75852   -5.99114
       O    10.63743   -4.32812   -6.06038
      H1    10.40414   -5.28182   -5.95505
       H    16.95282   -3.32925   -6.62267
       O    16.86134   -3.56216   -7.60139
      H1    16.21403   -4.33815   -7.63152
       H     7.53833   -5.47069   -5.47884
       O     7.87221   -5.98243   -4.76491
      H1     7.86031   -5.44125   -3.97441
       H     9.10474   -9.35349   -2.11829
       O     8.76524   -8.46253   -2.50026
      H1     9.23581   -8.31591   -3.32347
       H     9.44153    0.18715    0.02231
       O     8.89880   -0.52892    0.36413
      H1     9.45373   -1.07178    0.97271

