177
frame 4 | Written by MDAnalysis XYZWriter (release 2.4.3)
       H    13.47100  -13.15555    4.30671
       O    12.63301  -13.07572    3.79538
      H1    12.01540  -13.79670    4.03394
       H    16.63800  -14.74684    1.07494
       O    16.78094  -13.80812    0.87249
      H1    16.66405  -13.77521   -0.12643
       H     9.07539  -13.28720   -0.58865
       O     8.78932  -12.91431   -1.42896
      H1     8.51218  -11.97369   -1.29064
       H    10.65001  -14.60159    2.61439
       O    10.88685  -15.12564    3.38266
      H1    11.54241  -15.68468    3.01287
       H    12.87439  -11.16621    1.03607
       O    12.37621  -10.57299    0.47118
      H1    11.95875  -11.16075   -0.22443
       H    12.11477  -14.30521   -1.76793
       O    12.21891  -14.85861   -2.57193
      H1    12.67430  -15.62944   -2.27162
       H    14.01021  -17.03604   -5.49325
       O    13.41944  -17.69351   -5.08070
      H1    12.51997  -17.32977   -5.04100
       H    13.85161  -12.53424    2.44933
       O    14.22376  -12.57893    1.55529
      H1    15.09487  -12.98610    1.61607
       H     9.27077  -14.46540    6.97060
       O    10.13172  -14.33188    6.55122
      H1     9.88528  -13.93638    5.68120
       H     7.99203  -17.10134    0.38603
       O     8.14950  -16.32306    0.91690
      H1     8.21429  -16.61509    1.82221
       H     2.76260  -14.80779    2.10361
       O     2.95881  -15.39002    2.87588
      H1     3.67071  -15.86532    2.48844
       H     7.75186  -14.11324   -2.69421
       O     7.17213  -14.60729   -3.28973
      H1     7.74430  -14.69543   -4.10877
       H     7.09584  -10.14849   -1.53918
       O     8.01318  -10.30483   -1.38348
      H1     8.52773   -9.82011   -2.05233
       H    15.41672  -12.97783    5.62832
       O    15.29973  -13.08075    4.67095
      H1    16.04998  -12.58202    4.29852
       H     8.43735  -18.03576   -1.32017
       O     7.84038  -18.49988   -0.68221
      H1     6.97960  -18.49796   -1.15595
       H     5.57374  -13.69770   -3.17743
       O     4.67039  -13.36262   -3.15700
      H1     4.08432  -13.82706   -3.79644
       H    16.14742  -11.46561   -3.78029
       O    15.56827  -11.77219   -3.02219
      H1    15.40135  -11.04625   -2.39722
       H     7.72208  -13.76680    3.01636
       O     6.95781  -13.79054    3.54558
      H1     6.11863  -13.88109    3.05322
       H    12.28937  -11.37329    4.00405
       O    12.10351  -10.41046    4.05307
      H1    12.38405  -10.19842    4.94911
       H     5.64080  -16.82470   -6.36496
       O     5.36578  -16.49089   -5.46545
      H1     4.45481  -16.26682   -5.50902
       H    15.49036  -15.30167   -6.39283
       O    15.58826  -16.22683   -6.11906
      H1    16.00092  -16.77208   -6.77504
       H     8.82889   -9.20515    1.55149
       O     8.33948  -10.02985    1.43269
      H1     8.35269  -10.03971    0.46166
       H    13.65751  -17.85975   -2.47398
       O    13.82590  -17.15110   -1.82873
      H1    13.73932  -17.52070   -0.92007
       H    13.06468  -13.80314    0.52003
       O    12.12661  -13.94944    0.33035
      H1    11.84003  -14.86903    0.54151
       H     5.65695  -17.57229    1.94379
       O     4.98017  -16.88513    1.70525
      H1     5.35588  -16.14832    1.14430
       H     6.84864  -14.68929    0.73580
       O     5.83044  -14.59532    0.64101
      H1     5.67581  -13.81760    0.07083
       H    14.11208  -10.09968   -0.63622
       O    14.80764   -9.82921   -1.27209
      H1    15.08199   -8.90837   -1.05811
       H    12.09438  -12.12846   -4.74635
       O    11.30062  -11.57821   -4.69962
      H1    10.77370  -11.74650   -5.47709
       H    12.28693  -17.54319   -7.80662
       O    12.62971  -17.68760   -8.67533
      H1    12.24335  -16.90018   -9.15195
       H     8.03262  -18.36142   -4.93461
       O     8.25236  -17.75991   -5.68219
      H1     7.62399  -17.02892   -5.49181
       H     8.79510  -10.67298    3.28801
       O     9.31276  -11.12809    4.02286
      H1    10.14447  -10.64627    4.06605
       H     6.24926  -16.29677   -3.01836
       O     5.78367  -17.13258   -2.91658
      H1     5.44944  -17.22565   -3.84784
       H     9.92282  -17.21398   -5.12939
       O    10.63876  -16.73500   -4.64769
      H1    10.49581  -15.84889   -4.64707
       H    10.85058  -13.70310   -6.89965
       O    11.06960  -14.61708   -7.16801
      H1    10.22058  -15.00605   -6.83270
       H    16.49312  -14.46408   -2.42583
       O    16.71000  -13.80910   -1.74954
      H1    16.28321  -12.98829   -2.06388
       H    14.09458  -13.67323   -6.23664
       O    14.85865  -13.61249   -6.82775
      H1    15.28251  -12.77231   -6.60131
       H     7.43371  -18.53057    1.90649
       O     6.78378  -19.00680    2.46150
      H1     7.34510  -19.42144    3.09112
       H    16.54301  -15.97843    5.28062
       O    15.91266  -15.81694    4.62415
      H1    15.55875  -14.89212    4.75199
       H    10.57952  -18.56351   -2.13843
       O    10.56999  -17.69906   -1.64081
      H1    10.53504  -17.07318   -2.38026
       H    13.01842  -13.95300   -3.78214
       O    13.48002  -13.27356   -4.31159
      H1    14.42537  -13.18746   -4.06275
       H    11.17170  -16.83863   -0.11691
       O    11.01655  -16.30479    0.68346
      H1    10.06460  -16.07570    0.68318
       H    12.62231  -18.97623    0.54473
       O    13.38847  -18.37337    0.53485
      H1    14.17770  -18.95693    0.77279
       H     2.97160  -17.07576   -1.25124
       O     3.11515  -16.46171   -2.02846
      H1     4.02144  -16.71966   -2.19103
       H     7.00891  -15.09369    5.02607
       O     7.27707  -15.48135    5.88582
      H1     7.38075  -16.42759    5.72299
       H    17.58083  -16.83911    1.47411
       O    16.68351  -16.45844    1.78265
      H1    16.73727  -16.41346    2.76563
       H    14.33074  -19.08694   -5.57833
       O    14.76459  -19.74801   -6.10661
      H1    14.08750  -19.83972   -6.78330
       H     8.26331  -18.35458    6.58512
       O     7.61890  -18.30554    5.85286
      H1     6.96795  -19.06140    5.93493
       H    15.83105  -18.60645    1.63905
       O    15.49231  -19.36999    2.04369
      H1    16.01504  -20.08734    1.74476
       H     2.21747  -17.59997    0.80460
       O     2.81564  -17.81924    0.09590
      H1     3.58655  -17.95976    0.56692
       H    12.97670  -18.09216    2.34840
       O    13.07475  -17.82708    3.25442
      H1    13.74852  -17.12141    3.29931
       H    19.69316  -17.10424    0.57210
       O    19.06177  -17.76357    0.81768
      H1    18.64039  -18.03951   -0.01087
       H     9.75758  -12.28365    2.13446
       O     9.76183  -13.07535    1.54121
      H1    10.66283  -13.03913    1.14944
       H     8.61356  -17.41451    4.35847
       O     8.74448  -16.95806    3.50270
      H1     9.54829  -16.37599    3.49171
       H    15.59978  -16.18242   -4.19957
       O    15.92151  -16.05982   -3.27479
      H1    15.21945  -16.43918   -2.74180
       H    10.62433  -16.29884    6.74916
       O    11.05096  -17.08090    6.99035
      H1    12.01084  -16.96009    7.04123
       H    16.81971  -17.49380   -1.63608
       O    17.56640  -18.14507   -1.69393
      H1    17.21414  -18.93094   -2.13176
       H     8.04860  -15.02949   -6.57918
       O     8.63927  -14.81098   -5.85903
      H1     8.90154  -13.87751   -6.05338
       H    10.05522  -11.91217   -1.73899
       O    10.80809  -11.36247   -2.01622
      H1    10.92565  -11.57294   -2.95586
       H    10.23532   -9.41463   -2.73750
       O     9.44818   -8.98960   -3.13310
      H1     9.78548   -8.56367   -3.90850

