177
frame 0 | Written by MDAnalysis XYZWriter (release 2.4.3)
       H    13.42944  -12.61604    4.32844
       O    12.68761  -12.47121    3.67834
      H1    12.26242  -13.26709    3.73700
       H    11.14061  -18.90546   11.12937
       O    11.14746  -19.77547   10.67250
      H1    11.97900  -19.92136   10.19615
       H     8.98153  -19.09789   -3.55756
       O     8.32468  -18.96916   -4.25557
      H1     7.72063  -19.65872   -4.05210
       H     7.84228  -17.81469   11.93522
       O     7.43271  -18.42469   11.31652
      H1     7.69595  -19.30844   11.57462
       H     9.26236  -13.80345    0.39795
       O     8.71009  -13.65800   -0.36220
      H1     8.99849  -12.77521   -0.74656
       H    11.03987  -15.60562    4.35287
       O    11.91609  -15.24847    4.64610
      H1    12.47956  -16.01656    4.68562
       H    12.54887  -14.13271   -2.11010
       O    12.81367  -14.49067   -2.99443
      H1    13.21526  -15.35486   -2.92358
       H    13.38313  -12.61746    2.06202
       O    13.39415  -12.82298    1.11655
      H1    14.30137  -13.25486    1.05745
       H     9.78502  -14.11124    6.40175
       O    10.33280  -14.62194    7.04531
      H1    11.10794  -14.80720    6.51875
       H     8.49399  -15.82206    3.32587
       O     9.21644  -15.89331    3.97166
      H1     9.02603  -16.71922    4.47190
       H     3.55159  -14.69156    0.97038
       O     3.67418  -15.07560    1.82992
      H1     4.17002  -15.85870    1.69345
       H     7.48371  -15.01582   -0.62806
       O     6.87652  -15.75242   -0.58823
      H1     7.41495  -16.57775   -0.71018
       H    14.99022  -13.28701    6.20662
       O    14.89155  -13.15269    5.26122
      H1    15.43145  -12.34254    5.04926
       H     9.55938  -17.41239   -0.08639
       O     8.91540  -17.82254   -0.63687
      H1     9.41729  -17.88236   -1.45801
       H    13.88310  -10.29576    7.77102
       O    14.14280  -10.46565    6.81234
      H1    14.33161  -11.42427    6.86882
       H    15.81044  -16.57988   12.47866
       O    16.36813  -17.12622   11.94888
      H1    17.23235  -17.23353   12.40607
       H    10.29524  -16.54929   12.43570
       O    10.78405  -17.37490   12.19883
      H1    10.53520  -17.97594   12.94578
       H    18.66729  -17.43736    2.12149
       O    17.85239  -17.85373    2.38660
      H1    17.17602  -17.59165    1.79593
       H    13.01424  -14.85423    9.95432
       O    13.10098  -13.90049   10.12374
      H1    12.18519  -13.58819    9.88127
       H     5.43536  -12.24736    1.97462
       O     5.45103  -13.06861    2.42506
      H1     4.91291  -13.75421    1.99045
       H     3.41683  -20.19296    8.98378
       O     4.01831  -19.46238    9.24805
      H1     3.61175  -18.65766    8.97164
       H    11.94992   -9.31905    4.47448
       O    12.26560   -9.54956    3.58920
      H1    12.53723  -10.46361    3.60907
       H    13.78893  -18.00643   -2.68889
       O    13.86092  -17.20409   -2.18009
      H1    13.20333  -17.22459   -1.45392
       H    12.13575  -13.56419   -0.10336
       O    11.43408  -13.78621   -0.70303
      H1    10.91320  -14.52794   -0.41513
       H     5.19451  -18.98167    2.04985
       O     4.90857  -18.07094    2.29831
      H1     5.72033  -17.48611    2.42510
       H     6.50106  -14.98989    2.80744
       O     6.83921  -15.79212    2.40807
      H1     6.82035  -15.48483    1.44696
       H     7.32526  -17.12680    8.34727
       O     7.92409  -16.95258    9.06551
      H1     7.69418  -17.56015    9.77376
       H     9.85423  -10.56945    1.98645
       O     9.73776  -10.46644    2.92444
      H1    10.63744  -10.18060    3.19934
       H     3.27189  -17.43575    7.07798
       O     3.40431  -17.24695    8.01469
      H1     2.82311  -16.51223    8.28742
       H    10.75978  -17.53837    7.50470
       O     9.89021  -17.98908    7.62608
      H1     9.35932  -17.52224    8.28784
       H     3.93698  -17.13398    5.16227
       O     3.50258  -17.97998    5.11213
      H1     3.20974  -17.98102    4.20364
       H    15.23336  -13.19201    9.17494
       O    15.61606  -12.84956    8.31992
      H1    16.39830  -12.34241    8.69000
       H    17.10777  -18.91387    8.82590
       O    17.26113  -19.82425    9.05573
      H1    17.42667  -19.78750   10.02559
       H    13.73411  -16.50095   10.69541
       O    13.88401  -16.80049    9.76982
      H1    14.74183  -16.34157    9.47232
       H    15.96629  -15.81751    3.62301
       O    15.50241  -15.03541    3.29832
      H1    15.37703  -14.55933    4.12491
       H    11.12173  -19.00022   -2.04100
       O    10.73602  -18.41718   -2.72082
      H1    11.41456  -18.35877   -3.40021
       H    13.94037  -18.53362    9.11930
       O    13.86095  -19.24637    8.49874
      H1    13.91659  -20.03036    9.03467
       H    12.38215  -16.69878   12.42739
       O    13.26698  -16.24794   12.61693
      H1    12.93806  -15.52118   13.17606
       H    11.35800  -16.76438    0.87639
       O    10.48425  -16.41350    1.02454
      H1    10.48224  -16.54204    1.95508
       H    13.04869  -18.24142    1.11328
       O    12.93553  -17.62540    0.41643
      H1    13.82148  -17.46548   -0.01714
       H    10.41156  -18.78448    4.66341
       O    11.24866  -19.24534    4.78236
      H1    11.07199  -20.16772    5.03368
       H    17.01357  -15.08325    9.62052
       O    16.52337  -15.89917    9.44523
      H1    16.67519  -16.48677   10.23417
       H    14.79043  -18.43568    5.40534
       O    15.32299  -19.02467    6.02717
      H1    14.75322  -19.03260    6.84063
       H     8.12199  -12.23389    5.31485
       O     8.36652  -13.19995    5.34865
      H1     8.77076  -13.32552    4.47908
       H    18.16962  -15.32833    1.34985
       O    17.29816  -15.02506    1.03472
      H1    16.75141  -14.89339    1.77491
       H    17.50657  -16.69050    5.40050
       O    17.79994  -16.30134    4.59146
      H1    17.57650  -16.97719    3.90701
       H     6.24591  -18.42222    6.88823
       O     6.40008  -17.45893    6.92151
      H1     7.08285  -17.41185    6.25478
       H    16.45543  -16.61611    0.33022
       O    15.94608  -17.40692    0.40475
      H1    16.17005  -18.02056   -0.33010
       H     2.14229  -18.31338    0.44120
       O     2.93705  -18.76770    0.12892
      H1     3.68855  -18.57306    0.80746
       H    13.65291  -17.96612    3.43772
       O    14.07470  -17.24617    4.02462
      H1    14.23779  -16.50711    3.43231
       H     6.56177  -14.28266    8.39698
       O     6.87555  -14.45387    9.28917
      H1     7.47199  -15.18853    9.03949
       H    17.13525  -16.74788    7.86580
       O    17.18608  -17.29139    7.07235
      H1    16.28298  -17.51346    6.83012
       H     9.73325  -12.46992    2.70667
       O     9.44539  -13.37539    2.51186
      H1     8.59818  -13.20503    2.06272
       H     5.64860  -19.23583   11.67164
       O     4.75050  -19.59376   11.84223
      H1     4.39773  -19.70761   10.92967
       H     8.68901  -19.22299    4.82780
       O     8.76578  -18.33177    5.20022
      H1     9.16307  -18.38441    6.08143
       H    17.04113  -16.58481   -3.59477
       O    16.72783  -16.48804   -2.67892
      H1    15.84185  -16.90759   -2.64172
       H    12.77720  -18.19771    7.58812
       O    12.50261  -17.51427    6.93936
      H1    12.22010  -17.98961    6.09779
       H     6.88112  -13.69685    6.22756
       O     6.15933  -14.12735    6.70126
      H1     6.18047  -15.05782    6.52981
       H    10.11602  -12.17930    9.15985
       O    11.00356  -12.45373    8.81891
      H1    10.86424  -13.08133    8.12182

