177
frame 11 | Written by MDAnalysis XYZWriter (release 2.4.3)
       H     6.92337    3.51825    4.52790
       O     6.81396    2.73250    5.03994
      H1     7.60310    2.55584    5.55173
       H     7.13949   10.35454   -2.32348
       O     6.34915    9.80681   -2.13788
      H1     5.77141    9.80954   -2.92242
       H    14.90401   11.42887   -2.98198
       O    14.65077   12.31663   -3.23268
      H1    13.72813   12.21652   -3.60624
       H    13.77079    9.73730    1.72993
       O    13.03141    9.30762    1.20998
      H1    13.50167    8.96150    0.39320
       H     7.37168   10.00870    4.73066
       O     8.04670    9.46509    4.27920
      H1     7.58142    9.22829    3.41269
       H    12.38123    8.87501   -4.56043
       O    11.98875    9.01909   -3.70932
      H1    11.02813    8.97356   -3.86883
       H    10.63714    4.56592   -2.67525
       O    11.11605    5.37442   -2.63355
      H1    11.83007    5.30980   -1.99068
       H    14.20343    5.46875    5.36857
       O    13.81750    4.67657    5.80599
      H1    14.46420    4.24037    6.39898
       H     5.73663   12.95701   -1.62085
       O     5.08779   12.25287   -1.34379
      H1     5.50739   11.41408   -1.66471
       H    10.34913   11.72806   -4.47378
       O     9.42708   11.83119   -4.56723
      H1     9.24226   12.81481   -4.45954
       H     7.52499    7.79011    4.80271
       O     7.53487    6.95953    5.28951
      H1     8.44171    6.55824    5.21952
       H     7.58822    2.93803    0.38929
       O     7.29936    3.80189   -0.01818
      H1     6.41954    4.10384    0.32293
       H     4.64623    5.69447   -2.43504
       O     4.43026    4.79712   -2.19117
      H1     4.46385    4.87564   -1.22232
       H     6.84221    9.95166    1.25089
       O     7.13334    9.01286    1.49341
      H1     7.97837    8.95824    1.02219
       H    12.59562    8.00811    6.93848
       O    13.32596    8.43764    6.44654
      H1    13.05760    9.34295    6.30785
       H    17.30938    8.15078    4.86496
       O    16.74299    8.52489    4.19486
      H1    15.99236    7.88489    4.18805
       H     4.36160    8.19386   -0.83030
       O     3.90420    8.51097   -1.60537
      H1     3.25539    7.84589   -1.87723
       H    12.04831   12.08609   -3.27445
       O    12.06315   11.71578   -4.17725
      H1    12.07529   10.73308   -4.06140
       H     9.61293    5.40979    3.90037
       O     9.95946    5.79436    4.70366
      H1    10.06234    5.04795    5.35473
       H     9.93652   15.21748   -0.12249
       O    10.24078   14.82414   -0.96291
      H1     9.88153   13.94803   -0.83175
       H     7.29271    5.55153    3.89779
       O     6.82623    4.95924    3.29172
      H1     7.47123    4.92410    2.51500
       H     7.38669    7.31430    6.81526
       O     6.93681    7.67184    7.63154
      H1     6.84216    8.64783    7.47254
       H    10.98624   10.46457    4.84653
       O    10.69250   10.00024    4.00925
      H1     9.74191    9.84227    4.17145
       H     5.67887    7.95415    1.03064
       O     4.86340    7.45416    0.87807
      H1     4.26759    7.66689    1.60967
       H     9.32374    8.09948   -0.72910
       O     9.40476    8.74310   -0.00516
      H1    10.00402    8.32907    0.62058
       H    11.58207    2.06936   -1.61075
       O    11.32198    2.78119   -1.04052
      H1    10.41141    3.05021   -1.37886
       H     9.06871   13.38614    5.04122
       O     9.05224   12.61069    4.43348
      H1     9.96591   12.46685    4.21256
       H    12.82494   14.17080    0.49558
       O    13.17921   13.25426    0.25432
      H1    13.20404   13.15055   -0.71112
       H    10.29838    3.30399    1.84643
       O    10.44358    2.38718    1.55194
      H1    10.76612    2.51796    0.63816
       H    13.90695    7.17568    3.31519
       O    14.13781    6.98103    4.22779
      H1    13.75064    7.63708    4.83075
       H     9.90314    8.81773   -6.18170
       O    10.45939    8.70133   -6.97441
      H1     9.81420    8.34500   -7.63888
       H    12.62005    4.96205   -3.66127
       O    13.02904    4.84763   -4.50463
      H1    13.80599    5.46770   -4.52229
       H    11.88685   14.49810   -3.51391
       O    12.31722   14.16339   -2.65553
      H1    11.59724   14.32711   -2.04746
       H     8.77860    2.83589   -2.79981
       O     8.99096    3.51334   -2.13151
      H1     8.13481    3.62613   -1.67245
       H     5.38694   10.86844    2.79455
       O     5.22163   10.37058    3.58778
      H1     5.10574    9.45153    3.26655
       H     8.94575   11.40501   -3.01892
       O     8.52999   11.47620   -2.09983
      H1     9.27335   11.29127   -1.51768
       H    11.66936   11.08255    7.17791
       O    12.12620   10.87088    6.34693
      H1    12.75504   11.55813    6.12581
       H     6.04692    7.14469   -5.62334
       O     6.96961    7.25096   -5.41226
      H1     7.21357    8.10961   -5.68488
       H     3.99175    4.39084    1.11682
       O     4.86717    4.75013    0.68691
      H1     4.76977    5.72353    0.64941
       H     6.13028    7.84524   -2.43448
       O     6.09706    6.95922   -2.83158
      H1     6.17720    7.16135   -3.76495
       H    10.55531    8.19854    2.82441
       O    10.81116    7.71686    2.00249
      H1    11.73529    7.95175    1.83422
       H    11.35023   12.66618    0.61954
       O    10.51949   12.14706    0.51842
      H1    10.82370   11.30616    0.83864
       H    15.65068    7.55729    0.18258
       O    14.90272    7.76334   -0.38457
      H1    14.55036    6.92597   -0.60360
       H    16.32182    9.85945   -2.03222
       O    15.36906    9.94961   -1.88077
      H1    15.15459    9.09452   -1.40370
       H     6.59656   12.22256    1.44985
       O     5.91760   11.58360    1.30784
      H1     5.68189   11.73317    0.37569
       H    15.89245    6.85611   -3.93539
       O    15.24632    7.53338   -4.33332
      H1    15.45969    8.32788   -3.80415
       H     7.19731   14.96874   -1.58203
       O     7.15781   14.13229   -2.03657
      H1     7.65075   13.56155   -1.42329
       H    14.44379   11.90488    0.46484
       O    15.30307   11.45745    0.32499
      H1    15.22750   11.02295   -0.55802
       H    10.28780   15.30123    2.01160
       O     9.38735   15.65221    1.67695
      H1     8.80280   14.82227    1.79772
       H     3.25700    7.86086    5.72504
       O     3.81110    7.77051    4.91079
      H1     4.38708    6.99842    5.03243
       H    15.58435   10.61357    1.82131
       O    15.32088   10.34622    2.72337
      H1    15.94693    9.77250    3.14089
       H    12.43102   13.76252    3.44679
       O    11.94393   12.91595    3.53925
      H1    12.41474   12.21310    3.08314
       H     9.07424    8.29640   -3.65479
       O     9.39258    8.95041   -4.37585
      H1     8.61319    9.37616   -4.76569
       H    14.20821    4.65113   -0.68699
       O    13.65624    5.40680   -0.85540
      H1    13.17928    5.54650   -0.06110
       H     8.13513   13.03259    2.68214
       O     8.20419   13.17088    1.72866
      H1     8.93484   12.66829    1.40803
       H     8.67553    5.16434    0.80091
       O     9.30803    5.18284    1.57526
      H1     9.69587    6.05268    1.59640
       H     9.50696    6.48928   -2.42046
       O     8.88677    7.23043   -2.29747
      H1     7.96413    6.96111   -2.52779
       H     8.49679    1.51212    1.83600
       O     7.71099    1.41173    1.30118
      H1     7.09348    0.94332    1.84572
       H     4.09221   12.19324    1.69583
       O     3.22704   12.56337    2.07905
      H1     2.52014   11.93658    1.94296

