177
frame 7 | Written by MDAnalysis XYZWriter (release 2.4.3)
       H    13.96786  -12.73873    3.53463
       O    13.20309  -12.53783    3.01898
      H1    12.49360  -13.18433    3.09739
       H    17.30906  -13.72428   -6.57272
       O    16.90975  -14.19385   -7.31527
      H1    16.85165  -13.54705   -8.05959
       H    18.44173  -14.84913   -7.97757
       O    19.32537  -15.25243   -8.15680
      H1    19.22431  -16.11962   -8.54822
       H    20.10671  -18.25721   -3.60162
       O    19.77781  -17.59594   -4.22936
      H1    18.76435  -17.60687   -4.18974
       H    16.68457  -14.43047    0.20712
       O    16.59040  -13.66540   -0.35266
      H1    16.62002  -14.01315   -1.28719
       H    18.13394   -9.29849   -9.12990
       O    18.05926  -10.09339   -8.58151
      H1    17.88653   -9.80389   -7.69997
       H    10.75370  -14.10673    1.54566
       O    11.12743  -14.27877    2.43270
      H1    11.20630  -15.26224    2.42621
       H    19.06594  -14.06297    0.41220
       O    19.63436  -13.33599    0.14381
      H1    19.82386  -12.89988    1.03093
       H    13.89632   -7.42556    3.67547
       O    13.79050   -6.83007    4.41586
      H1    14.62290   -6.75300    4.85931
       H    14.09562   -9.99646   -0.32838
       O    13.37588   -9.40053   -0.47827
      H1    12.74279   -9.93412   -1.02919
       H    13.25797  -16.46619   -2.85427
       O    12.47955  -15.94326   -2.76471
      H1    12.23024  -15.69359   -3.65537
       H    18.50816   -9.86414   -0.77987
       O    18.23410   -9.34468   -0.01024
      H1    17.39431   -9.79501    0.28537
       H    13.57568  -17.21760   -5.66738
       O    12.77043  -17.75546   -5.33316
      H1    12.03944  -17.41839   -5.91068
       H    18.50066   -5.76100   -4.22361
       O    19.43172   -5.89585   -3.95002
      H1    19.50166   -5.80624   -3.03984
       H    13.90580  -12.35625    1.41225
       O    14.26502  -12.19069    0.52416
      H1    15.12644  -12.69525    0.44344
       H    18.44762  -12.14309    4.35856
       O    17.78701  -11.59588    4.76652
      H1    17.82588  -10.75740    4.24963
       H    18.17183  -11.51423    8.10311
       O    17.70060  -12.18015    8.65686
      H1    18.39213  -12.69932    9.07409
       H    15.01350  -12.74934    5.73935
       O    15.35677  -12.82410    4.88116
      H1    16.28311  -12.45977    4.86128
       H    16.80518  -11.54736   -4.32543
       O    16.56686  -11.05125   -3.51858
      H1    16.10409  -10.16216   -3.70143
       H    15.25347  -10.54435    1.30544
       O    15.85634   -9.76888    1.08802
      H1    16.21788   -9.41182    1.93934
       H    18.53726  -18.54193    1.64222
       O    18.11598  -18.91455    2.44116
      H1    17.66719  -19.72320    2.18152
       H    12.55900  -11.11184    4.47674
       O    11.68200  -10.73983    4.63441
      H1    11.72713   -9.96860    5.24085
       H    15.11435  -15.89098   -5.82858
       O    15.45254  -16.76735   -5.56625
      H1    15.29405  -17.24788   -6.38711
       H    17.76610   -8.16158    3.16378
       O    17.14442   -8.89105    3.42399
      H1    16.52914   -8.36644    3.89541
       H    14.74431  -17.98944   -1.55818
       O    15.07041  -17.05750   -1.47498
      H1    15.48559  -17.05209   -0.59739
       H    12.63489   -6.51224   -1.11546
       O    13.17113   -5.74158   -0.89261
      H1    13.79287   -6.12755   -0.25856
       H    13.17379  -13.01970   -0.56940
       O    12.44535  -13.42099   -1.03056
      H1    12.49067  -14.35898   -0.74431
       H    14.22080  -11.77002   -7.34628
       O    14.57833  -11.07743   -6.72567
      H1    15.53319  -11.11276   -6.90226
       H    14.36143   -8.85994   -1.90606
       O    14.90650   -8.63626   -2.65851
      H1    15.53913   -7.98378   -2.33693
       H    12.42605  -11.76315   -5.02641
       O    11.62622  -11.20912   -4.92916
      H1    11.08316  -11.30437   -5.73189
       H    12.09655   -8.44334   -0.97589
       O    11.42792   -7.78742   -1.24953
      H1    11.25935   -8.04763   -2.14118
       H    16.83140  -15.36382   -3.25679
       O    16.92653  -14.49174   -2.94583
      H1    16.19061  -14.04486   -3.37757
       H    13.13948   -9.75652   -5.23883
       O    13.37813   -8.84945   -5.09183
      H1    13.87558   -8.75499   -4.23696
       H    14.44188  -13.74182   -5.33971
       O    14.48375  -14.21546   -6.18318
      H1    15.33334  -14.30428   -6.57657
       H    19.83675  -10.26893    7.11104
       O    18.85669  -10.36287    6.98060
      H1    18.83004  -10.89063    6.21929
       H    14.08688  -13.10405    7.40916
       O    13.73926  -13.75716    6.79940
      H1    14.11858  -14.56068    7.12763
       H    17.77315  -15.51455    4.48497
       O    16.89696  -15.50896    4.07432
      H1    16.34641  -15.15086    4.77961
       H    16.26901   -6.11742    0.02910
       O    15.58530   -5.73790    0.69039
      H1    15.92251   -4.84012    0.84940
       H    13.47615  -12.68817   -3.18642
       O    14.18114  -12.63558   -3.81479
      H1    14.68633  -11.88017   -3.49313
       H    11.16802  -16.43814   -1.08878
       O    10.95536  -16.14004   -0.19486
      H1    10.05980  -15.73328   -0.35324
       H    19.39339  -19.15546    5.66319
       O    18.45765  -18.91093    5.53392
      H1    18.31450  -19.30358    4.62251
       H    19.33523   -6.41220    2.16568
       O    18.79658   -6.49831    2.96780
      H1    18.42350   -5.60010    3.09296
       H    14.27058  -18.61866    5.46452
       O    14.33223  -18.84224    6.38727
      H1    13.83157  -18.14876    6.86185
       H    18.66286   -8.56600    6.96823
       O    18.54371   -7.62652    7.06550
      H1    19.38848   -7.21596    6.75919
       H    17.44280  -16.78352    1.33188
       O    16.74341  -16.11707    1.38216
      H1    16.67988  -15.83056    2.29806
       H    18.86402  -13.17309   -5.29755
       O    17.95049  -13.11356   -4.98761
      H1    17.79610  -13.63749   -4.15918
       H    13.42039   -9.13544    1.55620
       O    13.20312   -9.08572    2.49917
      H1    12.44067   -9.58409    2.69920
       H    17.63755  -15.79621    7.22771
       O    18.39419  -16.36592    7.09540
      H1    18.01000  -17.17440    6.71108
       H    13.53417  -17.47882    3.46135
       O    14.35057  -17.89932    3.73357
      H1    15.13552  -17.25233    3.78474
       H    11.53749  -16.67238    1.57986
       O    11.41153  -17.05175    2.49180
      H1    10.45929  -17.08848    2.57332
       H    15.49776   -8.01223    7.20872
       O    15.95891   -7.64932    6.38845
      H1    16.88975   -7.46555    6.53795
       H    20.08481  -17.13213   -0.01935
       O    19.18422  -17.37084    0.12168
      H1    18.98537  -18.17006   -0.37956
       H    16.80825   -8.99333   -6.09447
       O    17.44977   -9.70718   -5.88885
      H1    18.08955   -9.31192   -5.26622
       H    17.95518   -6.38272   -1.28306
       O    17.16525   -6.90862   -1.16954
      H1    17.43306   -7.58261   -0.56358
       H    15.97909  -14.90489    8.74049
       O    15.88710  -15.41302    7.91549
      H1    15.15901  -16.00522    8.06527
       H    10.03539  -12.48584    1.06611
       O    10.05631  -13.01251    0.23284
      H1    10.98018  -12.87832   -0.07117
       H    16.47942  -16.94122   -4.38928
       O    17.12401  -17.12654   -3.64296
      H1    16.58986  -17.28390   -2.84320
       H    11.82259  -11.95659   -1.91312
       O    11.92867  -11.00459   -2.10868
      H1    11.09704  -10.75551   -2.56359
       H    18.13600  -11.05349   -2.64184
       O    18.83932  -11.17059   -2.00269
      H1    18.61537  -11.94027   -1.46232

