177
frame 10 | Written by MDAnalysis XYZWriter (release 2.4.3)
       H    14.01374  -13.30020    4.27157
       O    13.22865  -13.05821    3.79167
      H1    12.71760  -13.87582    3.73241
       H     7.90423  -12.88466    6.02997
       O     8.46395  -13.66905    6.21475
      H1     8.21519  -13.89379    7.13013
       H     9.58342  -13.80155   -1.50107
       O     9.40409  -13.00438   -1.98965
      H1    10.12802  -12.85864   -2.59781
       H    11.46193  -14.13599    1.88237
       O    11.39767  -14.78474    2.59150
      H1    11.83374  -15.59244    2.30205
       H    -0.30950  -17.26420    3.00746
       O     0.56167  -17.68140    3.07888
      H1     1.17905  -17.01529    2.79564
       H     1.49858  -13.25520    8.31116
       O     1.97968  -12.47371    8.67142
      H1     2.00305  -11.77405    7.92515
       H     7.49053  -15.19957    5.34860
       O     7.11066  -15.96447    4.89519
      H1     7.76673  -15.98124    4.17157
       H     8.76002  -15.88831   -0.71532
       O     9.46668  -15.42736   -0.31592
      H1     9.30904  -15.55686    0.62673
       H     1.42906  -14.86083    1.95437
       O     2.12623  -15.49901    2.27540
      H1     2.68447  -15.67906    1.48897
       H    12.09131  -18.12301   -0.69114
       O    11.95767  -18.98095   -0.23780
      H1    11.67702  -19.57555   -0.97912
       H     8.55172  -18.22564   -2.74136
       O     8.33902  -18.50859   -1.83383
      H1     7.55295  -17.89180   -1.78612
       H     4.61766  -14.06739   11.00186
       O     5.23941  -14.47916   11.67236
      H1     5.74246  -15.13550   11.15326
       H     3.65086  -15.26313   -3.59819
       O     3.54331  -14.91883   -4.54430
      H1     2.68804  -15.21847   -4.81394
       H     6.28744  -10.78097    1.71243
       O     6.79270  -11.51000    1.36761
      H1     7.37925  -11.04258    0.72465
       H     2.92745  -12.11646    2.41385
       O     3.08669  -11.27493    1.95980
      H1     2.39687  -10.73611    2.38342
       H     5.00198  -18.97737    2.86088
       O     5.27276  -19.88568    2.46804
      H1     4.67923  -19.93040    1.69979
       H     8.46750  -14.30277    2.94213
       O     8.68805  -15.17862    2.59824
      H1     9.65750  -15.16304    2.64316
       H     5.53825  -20.05486   10.59279
       O     5.71090  -19.29927    9.98798
      H1     6.02272  -18.53759   10.42831
       H     1.08308  -15.10893   -3.18155
       O     1.00166  -14.90734   -2.21765
      H1     0.68344  -14.02129   -2.24839
       H     9.28333  -18.47562   10.38434
       O     8.64647  -19.09503   10.73393
      H1     9.14102  -19.38970   11.54733
       H    -0.38788  -13.34637    4.94463
       O     0.34803  -12.79518    5.26313
      H1     1.09871  -13.00671    4.74415
       H     4.08904  -17.38813    0.41393
       O     4.42429  -16.48486    0.58952
      H1     4.43572  -16.08216   -0.27773
       H     6.18497  -11.33278    9.00640
       O     5.61491  -12.03525    8.60927
      H1     6.04437  -12.86398    8.69485
       H     7.58157  -13.21844   -1.38306
       O     6.68507  -13.30640   -1.18999
      H1     6.50593  -12.74239   -0.39031
       H     7.67929  -10.37634    5.61520
       O     7.38963  -11.16051    5.12312
      H1     8.08117  -11.34567    4.45632
       H     7.82639  -12.36964    2.50264
       O     8.49189  -12.67439    3.17501
      H1     9.30730  -12.65086    2.65765
       H     6.38681  -15.97638   -3.22018
       O     6.47719  -16.64223   -2.52996
      H1     5.68081  -16.71347   -2.13370
       H     3.79091  -17.41340    8.31008
       O     3.53427  -17.40571    9.24707
      H1     4.02716  -18.15368    9.64900
       H    -2.47283  -17.20858    4.05875
       O    -2.64397  -17.90209    4.74369
      H1    -1.99606  -17.78341    5.42918
       H     2.92050  -19.63994    0.51917
       O     3.75550  -19.15372    0.34794
      H1     4.11164  -19.64348   -0.42551
       H     4.21172  -18.56075    5.50998
       O     3.58302  -18.49905    6.20550
      H1     2.87851  -17.85853    5.88231
       H     5.33438  -11.78889    5.70276
       O     4.59325  -12.15499    6.18551
      H1     4.95817  -12.20457    7.12274
       H    12.33414  -15.42979    6.83980
       O    11.61579  -15.30907    7.48648
      H1    11.42186  -14.37179    7.51727
       H     2.34115  -12.01879   -1.39362
       O     2.65058  -12.42084   -0.56532
      H1     3.02683  -11.69005   -0.08818
       H    -0.91349  -14.81375    0.40284
       O    -1.45431  -15.54708    0.01544
      H1    -0.82324  -16.01766   -0.57730
       H    -1.80874  -16.01176    1.75113
       O    -1.85627  -16.10592    2.74817
      H1    -2.05714  -15.23412    3.09555
       H     0.13568  -14.73050    7.96649
       O     0.82633  -14.56511    7.32047
      H1     0.51280  -13.93039    6.70134
       H    11.97663  -16.46026   -2.31799
       O    12.50394  -16.49623   -1.41416
      H1    11.88773  -16.00937   -0.81544
       H     3.07343  -15.40474   -1.71496
       O     4.04999  -15.35936   -1.77706
      H1     4.22067  -14.49527   -1.42879
       H     7.12863  -19.36337    1.99217
       O     8.04555  -19.53922    1.94079
      H1     8.31414  -19.53162    2.84262
       H    -0.00328  -18.03782    6.40070
       O    -0.77340  -18.45688    6.84340
      H1    -0.57186  -19.38157    6.83832
       H    -0.15940  -12.89253    1.48567
       O     0.32787  -13.72574    1.26893
      H1     0.92643  -13.53131    0.59240
       H     3.36688  -10.69283    6.83227
       O     2.55017  -10.24027    7.06123
      H1     2.87888   -9.69601    7.78790
       H     5.52245  -17.10832    3.49589
       O     4.68841  -17.43487    3.24453
      H1     4.57895  -17.16258    2.33286
       H     4.55788  -10.59319    2.94064
       O     5.28358   -9.94790    3.08984
      H1     5.96955  -10.34110    3.68313
       H     1.89376  -18.01221   -3.14708
       O     2.72702  -17.63562   -3.41972
      H1     2.92314  -18.15380   -4.18406
       H     3.51042  -15.52359    8.98890
       O     3.77290  -14.57578    9.02576
      H1     2.99810  -14.08713    8.67360
       H     9.44681  -19.68712    4.75335
       O     8.88625  -18.96509    4.99655
      H1     9.28999  -18.47350    5.73745
       H     3.61572  -13.53736    4.30092
       O     2.91946  -13.44832    3.68853
      H1     2.70913  -14.30670    3.28227
       H    13.80602  -16.82335    0.74657
       O    13.30984  -16.75212    1.60828
      H1    12.62382  -17.44808    1.56260
       H     1.06584  -16.11947    5.94054
       O     1.17936  -17.07594    5.77063
      H1     1.01842  -17.21231    4.79854
       H     6.78210  -15.02561    8.69745
       O     7.37935  -14.24450    8.81752
      H1     7.90333  -14.57207    9.54016
       H    11.04376  -11.79372    0.95015
       O    10.90993  -12.75725    0.88549
      H1    11.22832  -13.00320    0.02077
       H    10.72156  -18.33251    1.25567
       O    10.89326  -18.06180    2.21629
      H1    10.17696  -18.48024    2.72053
       H     8.86020  -17.14750    7.86254
       O     9.68124  -17.65671    7.67639
      H1    10.33999  -16.88641    7.68973
       H     6.06809  -19.55191    5.48690
       O     6.41859  -18.81571    6.02676
      H1     7.30977  -18.78603    5.69503
       H     6.90124  -16.32383    6.68434
       O     6.91415  -16.69774    7.58499
      H1     6.70808  -17.59293    7.33908
       H    10.14985  -13.21849    6.92387
       O    10.83188  -12.78922    7.51706
      H1    11.05607  -11.93650    7.10424
       H     5.99929  -11.27659   -1.91282
       O     5.94986  -10.40385   -2.22625
      H1     5.11469  -10.36407   -2.71070

