177
frame 9 | Written by MDAnalysis XYZWriter (release 2.4.3)
       H     8.18813   -8.84044  -12.62827
       O     7.48624   -9.51505  -12.83755
      H1     7.88286  -10.13260  -13.48506
       H     3.70597   -4.42809   -4.95695
       O     4.56202   -4.72316   -5.33804
      H1     4.28132   -5.54911   -5.80629
       H     7.15550   -6.36864  -12.46024
       O     8.08116   -6.28091  -12.24511
      H1     8.08461   -6.04464  -11.34170
       H     8.76157   -5.52144  -15.26222
       O     8.22064   -4.88296  -15.76156
      H1     7.68993   -4.48010  -15.06658
       H     7.21973   -9.61688  -10.45486
       O     6.93828   -9.01162   -9.74793
      H1     7.69768   -8.66708   -9.32917
       H    -2.12343  -10.50751  -13.15301
       O    -1.67081   -9.65796  -13.25807
      H1    -1.62152   -9.48851  -14.22809
       H     3.56565   -4.47855   -9.31638
       O     3.02223   -5.01870   -9.95964
      H1     3.59084   -5.79989   -9.97121
       H     1.94797  -11.55325   -6.41930
       O     1.00230  -11.31492   -6.19387
      H1     0.87617  -11.87041   -5.39897
       H     5.60761  -13.27381  -12.91811
       O     4.68175  -13.28998  -13.09693
      H1     4.49684  -12.32386  -13.24332
       H    -1.61829   -6.33461   -9.26550
       O    -2.44742   -6.76468   -9.60221
      H1    -3.18280   -6.12854   -9.67382
       H     3.47430  -11.52200  -15.24364
       O     3.03193  -11.61645  -16.11294
      H1     2.27922  -12.20604  -16.14588
       H     4.41357   -5.41703  -18.15322
       O     5.08493   -5.95146  -18.55440
      H1     4.74560   -6.87561  -18.71560
       H     2.66909   -9.74163   -9.10929
       O     2.61515   -8.79609   -8.92179
      H1     3.53001   -8.41158   -8.98010
       H     0.95099   -5.48456   -8.94987
       O     0.06322   -5.66128   -8.68231
      H1     0.18505   -5.95452   -7.73682
       H     5.34388   -3.10215   -8.39341
       O     4.48182   -3.45462   -8.12531
      H1     3.77269   -2.84299   -8.47691
       H     5.59305   -6.22401  -16.88473
       O     5.46764   -6.69752  -16.01483
      H1     5.37034   -5.99971  -15.31167
       H     4.89248  -13.32468   -8.89292
       O     5.50511  -13.17195   -8.16627
      H1     5.02126  -12.76559   -7.47247
       H     2.77063   -9.89415  -16.45331
       O     3.17823   -8.99517  -16.45923
      H1     3.84776   -9.15910  -15.80498
       H     7.09878   -5.91386   -7.95863
       O     6.46645   -5.84626   -7.25765
      H1     6.25901   -4.90604   -7.11478
       H     4.30000  -10.66573   -6.15061
       O     3.88887  -11.45981   -6.52951
      H1     3.84346  -12.12068   -5.81346
       H     2.71184  -11.27225   -8.09348
       O     2.48389  -11.32545   -8.98390
      H1     1.56401  -11.35997   -9.22160
       H     7.01222   -4.49788  -13.26904
       O     6.61015   -3.74878  -13.73434
      H1     5.71486   -4.08907  -13.95626
       H     7.76143   -2.35491   -8.46887
       O     7.02776   -2.84462   -8.82400
      H1     6.82433   -2.45730   -9.67422
       H     4.77449   -7.93241   -6.17138
       O     3.98034   -7.39592   -6.03515
      H1     3.23003   -8.04046   -6.34181
       H     1.78919   -3.02545  -12.22891
       O     2.68010   -3.10214  -11.88173
      H1     2.61308   -3.86851  -11.33383
       H    -1.94113   -6.60088  -16.60441
       O    -2.10319   -5.90697  -17.28441
      H1    -2.28429   -5.03709  -16.87528
       H    -1.47604  -14.29613  -10.19868
       O    -1.09651  -13.90885  -11.02536
      H1    -0.70101  -13.06681  -10.74556
       H     2.02818   -8.70673   -7.28136
       O     1.64836   -8.65323   -6.38118
      H1     1.26284   -9.51626   -6.11306
       H     1.76677   -8.07425  -10.41563
       O     1.61602   -7.50042  -11.18802
      H1     0.67901   -7.45616  -11.40860
       H     0.35539  -11.00034  -10.87224
       O     0.11026  -11.40299  -10.05554
      H1    -0.58563  -10.75262   -9.78032
       H     6.99546   -9.01000  -14.61320
       O     7.03027   -8.82775  -15.53386
      H1     6.46369   -8.03225  -15.58621
       H     4.21773   -9.02022  -18.04183
       O     4.64246   -8.68864  -18.86294
      H1     5.58832   -8.94708  -18.69825
       H    -2.07055   -8.66981   -9.02101
       O    -1.83766   -9.52590   -8.55345
      H1    -1.98041   -9.20077   -7.66260
       H     3.95428  -10.12359  -12.91372
       O     3.68414  -10.84316  -13.46791
      H1     2.73616  -10.73892  -13.33216
       H     7.07580   -9.68738  -17.19637
       O     7.36849   -9.71863  -18.13270
      H1     7.70944   -8.84472  -18.24360
       H     6.36203  -11.50456   -7.95083
       O     6.96722  -10.84109   -7.79547
      H1     6.89530  -10.25549   -8.56925
       H    -3.69370   -6.92662  -13.24074
       O    -4.54567   -7.05622  -12.80847
      H1    -5.27616   -6.59684  -13.33936
       H     3.44678   -8.06280  -13.28796
       O     3.88302   -8.30627  -12.44042
      H1     3.21747   -7.98329  -11.89304
       H     4.75033   -5.47994  -12.09969
       O     5.30935   -6.05003  -12.57859
      H1     4.84388   -6.91988  -12.46111
       H     2.37994   -4.40307  -18.74764
       O     2.76090   -4.47102  -17.88292
      H1     2.06020   -4.94674  -17.44705
       H    -1.31572   -2.51663  -10.79918
       O    -1.60956   -2.58695  -11.74127
      H1    -1.26688   -3.47321  -12.14826
       H    10.62919   -6.84225  -14.19745
       O     9.70837   -6.68519  -14.33629
      H1     9.39871   -6.42370  -13.51868
       H     2.25013  -14.21663  -10.60623
       O     1.46861  -14.78380  -10.84687
      H1     0.69758  -14.22701  -10.77547
       H     3.42361  -12.39180  -10.05768
       O     3.67141  -13.20998  -10.52307
      H1     3.92937  -12.96134  -11.44768
       H     7.36410  -13.34930  -14.14227
       O     7.73930  -13.22676  -13.27794
      H1     7.91499  -14.14130  -12.97890
       H     0.60731   -7.16092   -5.98037
       O     0.36360   -6.26382   -5.98122
      H1    -0.43067   -6.11834   -5.47537
       H     2.39157   -7.96937  -15.22258
       O     2.06774   -7.62104  -14.36135
      H1     2.27133   -6.66181  -14.29460
       H     2.61048   -4.05512  -14.89269
       O     1.82444   -4.62139  -14.84301
      H1     1.28979   -4.05835  -15.43594
       H     0.15000  -12.99825  -14.84152
       O     0.01781  -13.16233  -13.89479
      H1    -0.94659  -13.03413  -13.83132
       H     6.01257   -1.46959  -11.31455
       O     6.70711   -2.12360  -11.50561
      H1     6.60095   -2.50171  -12.37796
       H     3.55711   -2.12270  -15.01767
       O     3.92430   -2.94147  -14.58361
      H1     3.60058   -2.90675  -13.65948
       H    -1.44822   -7.02791  -11.21528
       O    -1.15634   -7.20561  -12.11996
      H1    -1.43925   -8.09156  -12.46092
       H     9.36969   -5.15425   -9.78813
       O     8.45574   -5.37144   -9.55746
      H1     8.07172   -4.51396   -9.28467
       H    -0.65970   -5.55844  -13.33069
       O    -0.46499   -4.62392  -13.15536
      H1     0.39101   -4.37963  -13.44044
       H     6.13625   -9.99886   -6.61287
       O     5.69815   -9.56960   -5.85716
      H1     6.38924   -9.52174   -5.22488
       H     5.01336   -6.98335   -8.57476
       O     4.68696   -7.36723   -9.34955
      H1     5.23116   -8.00495   -9.73774
       H    -0.72591   -8.23528  -16.21214
       O    -1.16087   -7.77193  -15.49335
      H1    -0.45969   -7.44059  -14.90164
       H     0.58813  -11.78574  -12.99432
       O     0.90352  -10.86767  -12.64005
      H1     0.18432  -10.32714  -12.97810
       H     2.56233   -1.30148   -8.27371
       O     2.24641   -2.21092   -8.52184
      H1     1.84243   -2.10786   -9.38131

