177
frame 9 | Written by MDAnalysis XYZWriter (release 2.4.3)
       H     8.78037   -0.29073    0.12151
       O     9.07648   -1.16008   -0.20749
      H1     9.93760   -1.32095    0.26527
       H     6.48301   -0.60047    2.45473
       O     6.77477   -1.43849    2.77485
      H1     6.75179   -2.01285    1.99800
       H    10.46757   -2.71265   -2.72073
       O    11.21645   -2.43023   -3.21053
      H1    11.98416   -2.91619   -2.74685
       H    14.91848   -7.42172    4.38112
       O    14.38142   -6.63034    4.19283
      H1    14.64885   -6.52194    3.22564
       H     7.81612   -2.50364    0.30884
       O     7.09097   -3.16470    0.52217
      H1     6.25292   -2.84728    0.14671
       H    13.98749   -4.32550   -2.85953
       O    13.55869   -3.70963   -2.26856
      H1    13.30416   -4.33953   -1.56387
       H     6.81511   -6.03944   -0.02134
       O     7.41546   -5.55393   -0.60592
      H1     7.48481   -4.63592   -0.21036
       H     8.98911   -4.99269    4.76687
       O     9.72575   -4.30999    4.75684
      H1    10.21521   -4.51916    3.93045
       H    11.12258   -3.39143    6.02256
       O    11.41026   -3.50056    6.98485
      H1    12.16498   -2.79847    7.07268
       H    11.52297    2.66351   -1.62931
       O    11.87414    3.52054   -1.94447
      H1    12.51516    3.84073   -1.30982
       H     5.51249   -3.78357    5.08424
       O     5.39884   -4.68850    4.86733
      H1     4.57122   -4.61025    4.32364
       H     9.30627   -2.43849    3.73895
       O     9.38520   -1.50459    3.47541
      H1     8.48154   -1.25812    3.26177
       H    16.74175   -0.82050   -3.84648
       O    16.78140   -0.04327   -3.27050
      H1    15.92506    0.04160   -2.77201
       H    12.19589   -5.88842   -0.40874
       O    12.58611   -5.04576   -0.14876
      H1    13.40993   -5.19216    0.28629
       H     6.08654   -0.04904   -2.22267
       O     5.22698    0.34162   -2.28346
      H1     4.95799    0.51975   -1.36397
       H    12.38422   -4.54809    3.52016
       O    12.66832   -3.80654    4.10261
      H1    13.60333   -3.98744    4.15328
       H    10.11881   -7.78175    2.86881
       O     9.28776   -7.39851    2.51861
      H1     9.19004   -7.65611    1.56042
       H    14.94165    0.54990   -0.87509
       O    14.59805    0.68194   -1.77155
      H1    14.99101    1.54623   -2.06058
       H    14.32164    1.99890    4.38367
       O    14.71652    1.59113    3.58892
      H1    13.88259    1.27767    3.11259
       H     7.15073   -6.07437    7.32709
       O     7.87058   -5.53788    7.61728
      H1     8.55873   -5.60155    6.93277
       H    12.14889   -1.76236    1.29757
       O    11.48703   -2.26125    0.80975
      H1    11.33466   -3.08407    1.28618
       H    14.09106   -8.65232   -1.79206
       O    14.64239   -8.38484   -2.54355
      H1    15.27650   -7.75178   -2.30562
       H    15.26064   -3.02783    5.03136
       O    15.42355   -3.96245    5.04486
      H1    16.32405   -4.05426    5.41432
       H    13.50334   -1.54337    8.28048
       O    13.67327   -1.98586    7.43993
      H1    13.98611   -1.30492    6.79562
       H    12.18611   -8.07490   -0.95260
       O    11.53133   -7.35473   -1.10892
      H1    11.53485   -7.15618   -2.03526
       H     8.57045    1.79614    7.10461
       O     8.41599    1.86150    6.17631
      H1     9.07935    1.25075    5.79757
       H     7.52458    1.26996    2.19624
       O     6.53328    1.26260    2.25855
      H1     6.32131    1.62830    3.17372
       H    16.81726   -3.36493    1.23733
       O    16.11063   -3.06626    0.68083
      H1    16.48144   -3.10947   -0.19555
       H    10.85984    0.68447   -0.98927
       O    10.71656    1.50789   -0.51989
      H1     9.88916    1.78113   -0.87045
       H     7.02249   -1.91780   -5.30135
       O     7.95191   -2.17714   -5.06507
      H1     8.18678   -1.67272   -4.23571
       H    12.65496    0.15619   -2.23642
       O    11.75914    0.07947   -2.59982
      H1    11.54924   -0.84520   -2.65575
       H    18.22728   -3.75618    3.45775
       O    17.42144   -4.29484    3.20696
      H1    16.56115   -3.99941    3.61117
       H    16.63877   -3.84184   -2.89998
       O    16.75217   -4.22467   -3.73227
      H1    15.95574   -4.73564   -3.97479
       H    13.56152   -4.74800    7.53448
       O    14.29741   -5.22685    7.17086
      H1    14.64267   -4.76326    6.40759
       H    11.59000   -4.90504    1.43015
       O    11.04450   -4.84713    2.20791
      H1    10.56906   -5.69276    2.35072
       H     6.96645   -5.72527    4.48124
       O     7.82147   -6.20748    4.62953
      H1     8.23269   -6.35500    3.76349
       H    12.51426   -1.65462    3.41081
       O    12.95693   -0.96389    2.87930
      H1    12.58617   -0.15180    3.27238
       H    11.42197   -7.15547    5.73196
       O    11.61355   -7.37107    4.81369
      H1    12.50582   -7.14492    4.56964
       H    12.93267    2.02563   -4.60871
       O    12.47206    1.19491   -4.92884
      H1    12.23506    0.73132   -4.11655
       H    18.15246   -2.66732   -2.12071
       O    17.30361   -2.41331   -1.80302
      H1    17.12121   -1.46011   -1.80640
       H    15.43708   -5.87682    0.27695
       O    15.12578   -5.61984    1.16730
      H1    15.64452   -4.83679    1.35734
       H     8.79831    2.63310   -2.45992
       O     8.52333    2.02774   -1.71151
      H1     7.87838    2.39648   -1.08687
       H     6.22269   -4.45764   -1.73608
       O     5.71902   -3.75423   -2.16789
      H1     6.01700   -3.93434   -3.06109
       H     9.97666   -2.48603    7.72176
       O     9.42077   -1.89468    8.28481
      H1     8.51908   -2.27075    8.22459
       H    15.88472   -0.89296    0.60128
       O    16.15285   -0.01104    0.43679
      H1    15.83922    0.45821    1.20196
       H     6.44816   -2.28041    6.24113
       O     5.83646   -2.22525    5.51092
      H1     6.39348   -2.00764    4.72933
       H    14.34360   -6.58468   -3.43648
       O    14.27151   -5.80952   -3.98113
      H1    13.32135   -5.61694   -4.12270
       H    15.74310   -1.02210    4.88759
       O    14.78489   -1.25033    4.95846
      H1    14.31213   -0.98341    4.17806
       H    10.52428   -9.98120    1.74011
       O    11.34202   -9.49731    1.88379
      H1    11.58221   -9.90078    2.75079
       H    10.79052   -5.30140    6.70701
       O    10.53745   -6.17512    7.04782
      H1    10.63441   -6.04526    8.02514
       H     4.55222   -1.70884    0.79027
       O     4.31969   -2.58762    0.60725
      H1     3.39408   -2.59273    0.22671
       H     9.70706   -7.69662   -0.69884
       O     8.83059   -8.05458   -0.43784
      H1     8.30538   -7.26226   -0.67905
       H    17.37354   -5.94561   -1.20596
       O    16.55991   -6.39271   -1.00540
      H1    16.83901   -7.19694   -0.43911
       H    11.78749    2.36973    2.77793
       O    12.03737    1.63249    3.34975
      H1    11.32484    1.56405    4.02001
       H     7.99498    0.11775   -2.30942
       O     7.78104   -0.75788   -2.67196
      H1     8.18643   -1.25192   -1.94109
       H    11.36800   -3.63499   -4.75264
       O    11.80287   -4.38318   -5.13881
      H1    11.04079   -5.04920   -5.26780
       H    11.57981   -7.80459   -4.15515
       O    11.24775   -6.96338   -3.75815
      H1    10.46416   -6.70892   -4.29298
       H    10.00865   -0.39105    6.52290
       O    10.27614    0.02921    5.72980
      H1    10.00049   -0.50778    5.00691
       H     9.83720    1.38189    1.12600
       O     9.31463    0.81398    1.79747
      H1     9.96055    0.14640    2.03895

