177
frame 11 | Written by MDAnalysis XYZWriter (release 2.4.3)
       H    -5.27021    3.73740   -4.23939
       O    -5.65012    2.84337   -4.32714
      H1    -6.17468    2.75808   -5.16346
       H     3.30617    9.20539   -3.44933
       O     3.06587    9.49052   -4.34995
      H1     3.10804    8.64422   -4.88536
       H    -4.10555    3.89722    1.47813
       O    -4.03333    4.42396    0.63560
      H1    -3.37896    3.96126    0.13688
       H    -7.17386    6.37572   -2.07648
       O    -6.29590    6.22873   -1.69194
      H1    -6.52179    5.58259   -1.02787
       H     1.64514    3.26295    4.58680
       O     1.27313    3.81243    5.29762
      H1     2.00968    4.15040    5.80546
       H    -0.58173   -0.64094   -2.46149
       O    -1.24919   -0.74897   -1.77271
      H1    -0.74985   -1.28342   -1.14078
       H    -0.00715    8.70278   -6.37378
       O    -0.18507    8.14937   -7.12846
      H1    -0.49180    8.89799   -7.68570
       H     1.66136    1.49613   -5.18400
       O     1.38130    2.40201   -5.04877
      H1     0.57346    2.48863   -5.62264
       H     2.04458    4.88230    1.35523
       O     2.38979    4.00704    1.43220
      H1     1.82969    3.49735    0.83920
       H    -3.95010    8.05595   -0.82296
       O    -3.65257    7.98755   -1.72755
      H1    -4.23842    7.33730   -2.08753
       H     0.69930    1.74829   -0.12803
       O     1.59885    2.04551   -0.28120
      H1     1.64447    2.58735   -1.05296
       H    -3.57694    8.31140   -5.29342
       O    -4.00590    9.17691   -5.26083
      H1    -4.95570    9.11725   -5.31785
       H    -3.65753   10.00867   -3.40929
       O    -3.56058   10.84348   -2.91411
      H1    -3.90328   10.70657   -1.97829
       H     3.83192    6.15846   -5.17437
       O     4.11898    7.03840   -5.46532
      H1     3.99598    7.05177   -6.39845
       H    -4.09195    5.80633   -4.04593
       O    -4.65533    5.18752   -3.46154
      H1    -5.24139    5.67313   -2.88674
       H    -5.81025    7.13255    1.99895
       O    -5.15612    6.58639    2.47508
      H1    -4.35034    7.04397    2.63422
       H    -1.87320    3.09232    5.92880
       O    -2.54925    3.13969    5.27613
      H1    -2.27239    2.83200    4.42317
       H     0.47367    6.88747    0.93937
       O     1.34081    6.46548    0.96296
      H1     1.84575    7.21532    1.28899
       H    -1.25473    6.32254    2.44059
       O    -1.55418    6.16274    1.53420
      H1    -2.28802    5.57157    1.46513
       H     4.64623    5.69447   -2.43504
       O     4.43026    4.79712   -2.19117
      H1     4.46385    4.87564   -1.22232
       H    -5.38285    2.07989    2.44773
       O    -4.59317    2.68235    2.54554
      H1    -3.83310    2.08185    2.62549
       H     2.25507    4.49764   -2.35770
       O     1.56815    3.76754   -2.37249
      H1     1.59598    3.43998   -3.28057
       H     2.21352   10.81845   -5.51362
       O     1.37499   11.19940   -5.84111
      H1     0.70929   10.63855   -5.35762
       H    -0.25693   11.59582   -2.28404
       O    -0.58965   10.82094   -2.78851
      H1    -1.50981   10.80267   -2.76199
       H     4.36160    8.19386   -0.83030
       O     3.90420    8.51097   -1.60537
      H1     3.25539    7.84589   -1.87723
       H    -2.88968    2.17793   -3.07611
       O    -3.04702    1.85872   -3.95448
      H1    -3.96469    2.01571   -4.21790
       H    -5.79037    9.35834    0.05891
       O    -6.33946    8.56321    0.22785
      H1    -6.50322    8.14387   -0.61569
       H    -3.62139    3.44632   -1.29332
       O    -2.65024    3.31488   -1.31748
      H1    -2.13270    4.05669   -1.61619
       H    -1.09114   12.60561   -0.34267
       O    -0.78134   11.92542    0.21079
      H1    -0.17116   11.37346   -0.22961
       H     5.67887    7.95415    1.03064
       O     4.86340    7.45416    0.87807
      H1     4.26759    7.66689    1.60967
       H    -2.61665    5.10314    5.72670
       O    -2.40680    6.00080    5.80487
      H1    -2.88447    6.27362    6.58856
       H     4.43370    2.21282    2.88872
       O     4.64956    2.04967    1.95625
      H1     5.07112    2.87231    1.58695
       H     2.80601    8.24269    3.25288
       O     2.67958    8.53366    2.32888
      H1     2.06628    9.24354    2.33586
       H    -3.04981    6.26350   -5.91601
       O    -2.95373    6.78398   -5.12112
      H1    -2.03499    6.74960   -4.91388
       H     5.28461    1.74358   -3.23617
       O     5.43889    2.53693   -3.75400
      H1     5.19568    3.32503   -3.17596
       H    -4.56896   11.47584   -0.44696
       O    -4.56211   10.50085   -0.33308
      H1    -3.81640   10.30908    0.20263
       H    -3.18954    7.71901    4.29032
       O    -3.11990    8.15855    3.43909
      H1    -4.05099    8.42740    3.39123
       H    -0.71082    6.00672   -0.99635
       O    -0.80313    5.29671   -1.64954
      H1     0.05473    4.84218   -1.69471
       H    -2.87048   10.95595    4.87617
       O    -2.58684   11.35619    4.03926
      H1    -3.03968   10.78730    3.36095
       H     4.25991    3.93380   -4.94720
       O     3.42514    4.28898   -5.26139
      H1     2.92085    3.49384   -5.33393
       H    -2.11007    9.32674    1.91897
       O    -2.43347    9.90697    1.18533
      H1    -1.78217   10.63964    1.01400
       H     1.45860    6.49783   -3.06122
       O     1.93367    6.79654   -2.24742
      H1     1.33169    6.99376   -1.53297
       H    -1.17044    7.83535    0.28457
       O    -0.56019    7.95719   -0.46860
      H1    -1.14714    8.32170   -1.18583
       H     0.70662   11.01670    3.02752
       O     1.09962   10.99489    2.13835
      H1     0.49687   11.52129    1.57773
       H     3.99175    4.39084    1.11682
       O     4.86717    4.75013    0.68691
      H1     4.76977    5.72353    0.64941
       H    -0.26790    8.97981    4.04180
       O    -0.20379    9.90435    4.30581
      H1    -1.10797   10.29485    4.27157
       H    -1.55698    1.02917    2.25887
       O    -2.16516    1.44109    2.89111
      H1    -2.08275    1.03802    3.74156
       H     0.68762    6.61109    3.29923
       O    -0.06322    7.07842    3.65518
      H1    -0.22284    6.73671    4.52946
       H    -7.34751    5.13836    0.48169
       O    -6.77737    4.49153    0.07157
      H1    -5.93187    4.67192    0.45447
       H     1.75982   10.33928   -1.02195
       O     1.75443   11.29902   -1.03962
      H1     2.64043   11.54079   -0.84277
       H     2.44570    2.11950    2.73249
       O     2.26470    1.71081    3.57680
      H1     2.44460    0.75987    3.50376
       H    -0.76562    6.22409   -6.92872
       O    -1.19837    5.33649   -6.98285
      H1    -1.62764    5.28001   -7.85164
       H     4.27877    1.06575    0.52903
       O     4.07331    0.54183   -0.27666
      H1     3.27231    0.95415   -0.54860
       H    -6.51197    4.53710    2.83994
       O    -7.12395    4.50532    3.58274
      H1    -7.29051    5.39243    3.88412
       H    -0.52651    5.96371   -3.46284
       O    -0.21463    6.42158   -4.28197
      H1     0.03797    7.32254   -4.11050
       H    -1.30075    0.57891   -0.45016
       O    -1.16327    1.40975    0.08383
      H1    -1.75032    2.14466   -0.21304
       H     1.13803    9.32064   -4.46667
       O     0.22882    9.07176   -4.53945
      H1    -0.20223    9.71516   -3.95583
       H    -5.76546    2.56898   -2.28828
       O    -5.52096    2.23898   -1.37277
      H1    -5.99337    2.85443   -0.84404
       H    -1.69014    2.59574   -5.28697
       O    -1.17036    2.80382   -6.07618
      H1    -1.13901    3.80404   -6.04556

