177
frame 2 | Written by MDAnalysis XYZWriter (release 2.4.3)
       H     6.04182  -10.58610    8.44659
       O     5.72968  -10.69971    9.32721
      H1     6.48270  -10.44123    9.84626
       H     8.02038  -10.73865   12.40353
       O     8.06803  -10.49716   11.46162
      H1     8.42846   -9.61684   11.61955
       H    -1.75958   -3.23654   12.46337
       O    -2.11488   -2.39675   12.22749
      H1    -1.53322   -1.75842   12.64920
       H     3.33044   -3.16217   11.35456
       O     3.90873   -3.57971   12.01610
      H1     3.22299   -3.98680   12.58521
       H     7.56170   -2.42683   11.05676
       O     6.91391   -1.99640   10.46650
      H1     6.53451   -2.77680   10.01198
       H     0.22578  -12.65105    5.28582
       O    -0.06074  -11.79044    5.54197
      H1     0.73829  -11.32872    5.87549
       H     4.76416   -6.69263    3.97783
       O     4.99777   -6.22173    4.74234
      H1     4.57401   -5.41921    4.75969
       H     6.45624   -6.52627    6.00206
       O     7.39746   -6.74684    6.16886
      H1     7.31028   -7.74068    6.04002
       H    -0.84818   -5.84855    6.70545
       O    -0.23481   -6.51269    6.28200
      H1    -0.47392   -7.37486    6.66845
       H     0.66999  -12.26809   11.58412
       O     0.29534  -12.89874   10.93764
      H1     0.13761  -12.39508   10.11907
       H     1.84677   -5.66022    3.29601
       O     1.60240   -6.54804    3.60686
      H1     1.14219   -6.45481    4.43949
       H     5.41220   -3.81671    8.15913
       O     5.87723   -4.10808    8.97755
      H1     5.24582   -4.48401    9.58227
       H     2.98563   -2.81785    7.36974
       O     3.66740   -3.53217    7.39051
      H1     3.05486   -4.22934    7.60348
       H     0.60112   -7.37270   14.28822
       O     1.28094   -6.78909   14.68998
      H1     2.10443   -7.06375   14.31501
       H    -2.02801   -3.62743    4.20439
       O    -1.90533   -2.82913    4.76469
      H1    -1.26880   -2.98537    5.48299
       H     3.75306   -3.57132    5.54255
       O     3.96259   -3.64844    4.59503
      H1     3.10042   -3.71534    4.11342
       H    -0.89470   -9.93874   11.18800
       O    -0.48566   -9.08184   11.00874
      H1     0.40360   -9.40234   10.74669
       H     4.49813   -3.42799   14.81312
       O     5.46005   -3.39929   14.74572
      H1     5.63317   -3.17619   13.79862
       H    -0.52172   -3.17894    8.90336
       O    -0.28479   -3.84121    9.54039
      H1    -1.21015   -4.05513    9.82822
       H    -2.54535   -6.26164    8.47109
       O    -2.73915   -7.10291    8.84039
      H1    -2.27644   -7.74374    8.22703
       H     4.41068  -11.90712    8.35816
       O     3.76592  -12.46784    7.90304
      H1     4.39085  -13.14466    7.40937
       H    -3.44324  -10.60299   11.81041
       O    -2.74279  -11.09734   11.33846
      H1    -3.28818  -11.64726   10.69132
       H     8.06161   -4.78011    8.71641
       O     8.79229   -5.18692    8.20276
      H1     8.34893   -5.75949    7.56484
       H     2.32757   -0.69367    9.97722
       O     2.33420   -0.19360    9.17450
      H1     3.25997   -0.04085    8.92805
       H    -0.46975   -4.30545   13.56076
       O    -1.38234   -4.58649   13.72290
      H1    -1.73324   -4.07995   14.51646
       H     5.07101   -9.24625    5.79246
       O     5.39627  -10.05256    6.23534
      H1     6.36182   -9.93636    6.19435
       H     7.20728   -5.81461   12.88063
       O     7.62595   -5.90894   12.04981
      H1     7.99119   -6.77629   12.09192
       H    -3.85092   -8.95195   13.73784
       O    -3.86797   -9.27426   12.86664
      H1    -3.45441   -8.50329   12.40771
       H    -2.78884   -6.89221   10.68015
       O    -2.79378   -6.96603   11.66483
      H1    -1.88673   -6.72607   11.89637
       H    -0.68726   -8.49387   13.08061
       O    -0.54001   -8.46117   14.01627
      H1    -0.45730   -9.32357   14.41926
       H     4.28648  -10.76996   14.77701
       O     4.42922  -10.45128   13.84893
      H1     3.55245  -10.70029   13.54162
       H     0.81380  -11.16215    8.45248
       O    -0.08178  -11.35315    8.54029
      H1    -0.38397  -11.70006    7.67058
       H     1.14022  -11.42444   13.73017
       O     1.94522  -11.47419   13.17179
      H1     2.29397  -12.33582   13.48225
       H    -1.92892   -9.46015    6.82558
       O    -1.31933   -8.88532    7.24413
      H1    -0.72829   -9.38026    7.80724
       H     3.76439   -6.95333   10.05034
       O     3.13171   -7.45388    9.59406
      H1     2.28310   -7.07949    9.78624
       H     4.20870  -11.28773    5.05288
       O     3.83095  -11.98580    4.47956
      H1     4.52064  -12.33051    3.89451
       H     0.85265   -1.91463   11.62846
       O     1.51542   -2.05381   10.98510
      H1     0.88752   -2.43060   10.35412
       H    -0.12595   -1.89060    7.34061
       O    -1.03911   -2.14308    7.46924
      H1    -1.53185   -1.36229    7.20458
       H     3.40307   -7.36085    5.71293
       O     3.24962   -8.32759    5.71759
      H1     2.97009   -8.62234    4.83319
       H     4.61412   -5.15039   11.45008
       O     5.04620   -5.99468   11.20902
      H1     6.00716   -5.91358   11.25511
       H     2.04403  -10.25579   11.13149
       O     1.90224   -9.97912   10.21032
      H1     2.57013   -9.29100    9.97103
       H     4.42652   -7.23009   12.83238
       O     4.35687   -7.37870   13.79601
      H1     4.08925   -8.28622   13.94366
       H    -4.27488   -9.11428    8.91221
       O    -4.93265   -9.58512    8.40621
      H1    -5.09987  -10.48692    8.81146
       H    -3.11815   -2.70565   10.29985
       O    -3.02656   -3.51117    9.77902
      H1    -3.79199   -3.65114    9.26504
       H     4.67093  -11.62065   10.58821
       O     4.22060  -12.17365   11.23513
      H1     3.64781  -12.75397   10.67747
       H     2.18512   -1.39066    6.36283
       O     1.59937   -1.71479    7.01844
      H1     1.69598   -1.07920    7.75303
       H    -0.15689  -10.24178    4.17838
       O     0.11504   -9.67017    3.40275
      H1    -0.31070   -8.81541    3.56716
       H    -3.45689   -6.61789   15.15886
       O    -3.14905   -7.52507   15.27230
      H1    -2.47414   -7.72899   14.55994
       H     2.53585  -11.03026    7.20486
       O     1.87372  -10.33478    7.00894
      H1     2.44152   -9.54495    6.83246
       H     1.29078   -5.40304   12.04205
       O     1.41941   -4.82347   12.80335
      H1     1.49265   -5.40893   13.56062
       H    -2.87933   -4.87881    6.64840
       O    -2.15495   -4.90410    7.23811
      H1    -1.91431   -4.02344    7.42124
       H    -0.52845   -4.89130   16.02397
       O    -0.02386   -5.39684   16.66505
      H1     0.62311   -5.95006   16.14415
       H     0.13998   -7.27096   10.58281
       O     0.57811   -6.38840   10.49118
      H1     0.10713   -6.02252    9.77277
       H     7.77720  -10.71304   14.99738
       O     7.29896  -10.93332   14.18779
      H1     6.40434  -10.51965   14.29532
       H     1.21562   -5.77400    7.00837
       O     2.03896   -5.54943    7.52364
      H1     2.44068   -6.38836    7.79788
       H     5.46923   -6.56209   14.59440
       O     6.29046   -6.06782   14.84792
      H1     6.06355   -5.12376   14.89927
       H     1.74588  -13.42368   10.28963
       O     2.58412  -13.85761    9.92172
      H1     2.98777  -13.37221    9.16427
       H     1.53659   -3.72595   16.68194
       O     2.00095   -3.58668   15.85229
      H1     1.60579   -2.80545   15.39132
       H     1.42466   -8.30751   16.02308
       O     1.78512   -9.00999   16.67916
      H1     2.58221   -8.61842   17.07722

