177
frame 9 | Written by MDAnalysis XYZWriter (release 2.4.3)
       H     4.69938   12.07787   18.79711
       O     4.31364   12.46713   17.97781
      H1     5.08861   12.60767   17.42724
       H     7.64285   18.89776   13.59834
       O     8.33933   18.47097   13.06880
      H1     9.06593   18.71318   13.62750
       H     3.87120   10.72498   17.45555
       O     3.88969    9.76043   17.33690
      H1     4.70830    9.39456   16.99113
       H    13.25626   20.37157   11.81457
       O    13.27923   19.82094   12.58444
      H1    13.07946   18.92103   12.19220
       H     5.74275   12.69281   14.86537
       O     6.16398   12.05232   15.48672
      H1     5.85152   11.16572   15.15421
       H    15.22096   18.67009   16.27866
       O    14.97110   19.42191   15.72805
      H1    14.41786   19.15964   15.02884
       H     9.40115    9.32911   19.29866
       O     9.25235    8.64562   18.62392
      H1     8.76374    7.89571   19.05626
       H     2.20976   15.97693   15.86666
       O     1.79391   15.64274   16.66058
      H1     2.45614   15.41279   17.26449
       H    12.95788   17.59637   15.88668
       O    13.13437   17.34494   14.95972
      H1    13.86980   16.71790   14.94540
       H     6.95633   18.89431   15.54079
       O     6.58290   19.52167   14.92349
      H1     5.65181   19.72784   15.13354
       H     3.89195   14.52426   14.46018
       O     4.41494   13.75413   14.18840
      H1     4.24380   13.74276   13.25678
       H     7.26149   16.91607    7.66306
       O     7.37325   15.94319    7.73869
      H1     6.78244   15.62291    7.04589
       H    12.52400   12.84418   18.01589
       O    12.99729   13.37897   18.71435
      H1    13.58888   12.66888   19.12411
       H     7.65152   11.52255   18.23222
       O     7.45916   10.59478   18.32657
      H1     8.22563   10.06110   18.51426
       H    10.74096    9.46301   11.30462
       O    11.06388   10.34781   11.57889
      H1    11.33314   10.79551   10.78918
       H     4.84117   17.21988   11.98354
       O     4.37833   17.84564   11.36034
      H1     3.90588   17.25088   10.79005
       H     6.85520   16.80309   12.81085
       O     6.04123   16.28372   12.76532
      H1     6.16812   15.77290   11.94903
       H     6.65147   14.72641   14.64778
       O     7.47287   15.11257   15.04359
      H1     8.04355   14.33595   15.10072
       H     9.74881   17.37019   11.95909
       O    10.30229   17.04413   11.26853
      H1    11.24491   17.19313   11.57148
       H     0.27141   15.22808   19.48795
       O    -0.09950   15.74317   18.77092
      H1     0.57479   15.98635   18.11683
       H    10.10899   18.36408    9.74465
       O    10.01699   18.92448    8.97558
      H1     9.09566   19.02978    8.85497
       H     3.94629   14.30496   18.71117
       O     3.71015   15.26345   18.69625
      H1     3.73931   15.50583   19.66061
       H    11.30254   13.73566   16.21418
       O    11.44483   12.82291   16.47530
      H1    12.03306   12.53502   15.76931
       H    14.33795   14.97211   18.13402
       O    14.88451   15.68932   18.44214
      H1    14.17256   16.38924   18.63823
       H    12.98653   18.78214   18.12566
       O    12.80120   17.90717   17.76853
      H1    11.79693   17.84519   17.66555
       H     9.66446   12.58272   15.36075
       O     8.84243   12.71004   14.96231
      H1     8.14665   12.07983   15.27931
       H     7.01724   19.26266    8.81485
       O     7.26492   18.83983    7.98978
      H1     6.93464   19.37719    7.23142
       H    16.53659   17.71301   16.56645
       O    16.12898   17.84700   17.46378
      H1    15.62875   17.05371   17.65214
       H     2.34900    9.83514   14.56664
       O     2.17400    9.18599   15.25602
      H1     2.77947    9.47366   15.98278
       H     4.95809   13.71398   10.80158
       O     4.54076   13.11330   11.40263
      H1     3.96096   12.57823   10.84815
       H    -0.43698   14.44255   17.14332
       O    -0.98114   14.12853   16.48101
      H1    -1.73904   14.74339   16.56292
       H     0.50286   18.82821   13.42887
       O     0.15589   18.59534   14.31038
      H1     0.18593   17.61629   14.34464
       H    14.37613   11.93659   14.72681
       O    13.42213   11.89427   14.56046
      H1    13.14759   10.98388   14.54932
       H    -0.40404   15.12782   14.97065
       O    -0.58135   15.84145   14.29449
      H1    -0.72582   15.28077   13.48937
       H     0.45627   15.45072   11.72982
       O     1.34208   15.19972   11.98095
      H1     1.27439   14.28938   12.32266
       H     1.27931   18.63144   15.75777
       O     2.17371   18.57430   16.13890
      H1     2.13642   17.71430   16.62853
       H     9.31261   13.58528   18.53305
       O     8.83557   12.90630   18.01278
      H1     9.45376   12.71062   17.26768
       H     2.50145   15.39390   10.27876
       O     3.25352   15.86502    9.83254
      H1     2.94805   16.16418    8.92366
       H     5.85489   11.95967   11.44015
       O     6.48340   11.28688   11.58920
      H1     7.27682   11.78246   11.76961
       H     1.51920   12.38405   13.48285
       O     0.69063   12.89125   13.26730
      H1     0.22979   12.38358   12.60275
       H     9.25983   12.63378   13.07654
       O     9.28587   12.27569   12.17475
      H1     9.84474   11.54638   12.09677
       H    15.84354   15.51892   12.16969
       O    14.87688   15.37643   12.06488
      H1    14.75353   14.45503   11.83936
       H     6.22894   16.41858   19.44961
       O     6.02665   16.64920   18.52544
      H1     5.36250   15.94269   18.37963
       H     7.68705   16.54322   15.92091
       O     7.86500   17.34306   16.44731
      H1     7.40078   17.16731   17.29301
       H     6.62923   15.39977    9.53109
       O     5.97947   15.22870   10.23304
      H1     5.21152   15.52888    9.84542
       H     4.91677   18.38128   18.71365
       O     4.80395   19.31351   18.84770
      H1     4.29652   19.49088   19.64619
       H    10.22577   16.29825   18.24190
       O    10.23304   17.24725   18.12367
      H1     9.46052   17.58923   17.59143
       H    10.58167   14.87642   10.64269
       O    11.06512   14.10658   10.95906
      H1    10.44312   13.60069   11.46806
       H    13.59183   16.81654   11.71351
       O    13.01831   17.38486   11.20580
      H1    13.45641   17.40714   10.38093
       H    14.55551   14.80813   14.05907
       O    14.72042   14.87560   15.01213
      H1    15.69181   14.87499   15.07435
       H     0.74077   19.56190   19.11918
       O     0.63694   19.54892   18.15528
      H1     1.28265   18.87110   17.84337
       H     5.64052    8.10959   17.50084
       O     6.16971    8.68217   16.92729
      H1     6.69950    9.26450   17.55484
       H     7.51175    9.92957   14.40177
       O     6.69771    9.66250   13.95143
      H1     6.67943   10.30264   13.20224
       H    12.59882   13.21853   11.61863
       O    13.46420   12.84086   11.88865
      H1    13.41564   12.59545   12.82987
       H     3.70944   10.97134   13.10942
       O     3.11889   11.39245   13.78025
      H1     3.68397   12.08667   14.21479
       H     2.81830   17.26111   13.91277
       O     2.65216   16.32160   14.12810
      H1     2.15117   15.91356   13.35303
       H     9.98270   15.95973   15.53905
       O    10.75869   15.46650   15.70444
      H1    11.46870   16.11724   15.43859
       H     9.96636    8.81270   15.37872
       O     9.59814    9.60900   15.83953
      H1     9.56926    9.37694   16.76338
       H    10.91720   19.82961   15.20100
       O    10.86776   19.04337   14.61514
      H1    11.76816   18.84452   14.40108

