177
frame 0 | Written by MDAnalysis XYZWriter (release 2.4.3)
       H    -1.62937    9.47096    7.64547
       O    -2.42913    9.63272    8.05910
      H1    -2.79720    8.79658    8.32860
       H    -4.02219    4.28283   10.46519
       O    -3.48613    4.40580   11.25622
      H1    -3.87125    3.96582   11.98936
       H     5.43775    3.10416    9.83739
       O     4.99597    3.09760   10.71470
      H1     4.96550    2.18273   10.98221
       H     0.28797    4.68234    3.97148
       O    -0.14774    5.38529    3.47833
      H1     0.63034    5.75878    3.02329
       H    -1.65765   -0.78452   12.64407
       O    -2.39047   -0.77058   11.99468
      H1    -2.94201   -0.01047   12.15683
       H     2.17314    3.98133   10.05793
       O     2.86217    4.12563    9.44728
      H1     3.58911    3.77023    9.96608
       H     1.87495    4.47436    6.34421
       O     0.99791    4.68227    6.60529
      H1     1.10150    5.59496    6.97906
       H    -1.21617    4.74224   15.00610
       O    -2.00581    4.58171   15.48630
      H1    -1.75986    4.04708   16.28167
       H     4.37239    4.34485    5.38525
       O     3.57843    3.83126    5.49347
      H1     3.28091    3.55427    4.63630
       H    -0.72668    4.89694   11.11328
       O    -0.86561    4.00153   10.80737
      H1    -1.81888    3.82536   10.90535
       H     0.26249   -0.73342   13.96960
       O     0.40834    0.21791   13.85257
      H1     0.34435    0.43426   14.81782
       H     0.57298    9.22954    6.16440
       O     0.50491    9.42406    7.10978
      H1     1.22246    9.97638    7.37199
       H     0.52431    6.62760   10.13058
       O     0.44774    6.37043   11.03513
      H1     1.15435    6.86634   11.46490
       H    -1.00676    2.32212   17.16499
       O    -1.00234    3.08200   17.84775
      H1    -1.68717    2.79278   18.51509
       H     3.44402   -0.76238    9.96073
       O     3.87351   -1.58226   10.29133
      H1     4.77006   -1.40660   10.53454
       H    -7.90548    4.94484   10.79613
       O    -8.19783    4.38365   11.49136
      H1    -7.82150    4.81132   12.29951
       H    -0.84714   -2.95568   13.07179
       O    -0.94879   -2.18532   13.70847
      H1    -1.77066   -2.38137   14.14303
       H    -0.62742    8.40181   12.24982
       O    -1.45773    8.82207   12.41647
      H1    -1.46113    9.68425   12.02480
       H    -4.74347    0.83057    7.36142
       O    -4.84214    0.04947    6.84876
      H1    -5.67888    0.09430    6.34942
       H     5.47215    6.21616   15.28256
       O     5.90495    5.79640   14.52049
      H1     5.24011    5.67122   13.84064
       H    -3.35955    7.91354   11.90389
       O    -4.11336    7.48261   11.49467
      H1    -4.13070    6.55997   11.68128
       H    -8.55910    2.27637    8.52329
       O    -7.77595    2.17293    7.90631
      H1    -7.01230    2.48204    8.40543
       H    -1.73231    6.19979    3.90949
       O    -2.59306    6.57626    3.88212
      H1    -3.01325    6.26714    4.74924
       H    -3.80883   11.05405   10.52435
       O    -2.96313   10.62395   10.76770
      H1    -2.55291   10.31993    9.95196
       H     3.29543    0.08551   15.20372
       O     2.75476   -0.04646   16.00127
      H1     3.22149    0.22276   16.78020
       H    -2.95617    7.18064    9.66448
       O    -2.81350    7.00874    8.73671
      H1    -1.85172    6.88608    8.65548
       H     1.30436    0.88404   16.23801
       O     0.34233    1.13291   16.31898
      H1     0.10089    0.46265   16.97911
       H    -0.78920   -1.09524   10.76987
       O     0.07039   -0.92441   10.28215
      H1     0.28017   -1.69937    9.73875
       H    -6.90413    7.96685   15.61735
       O    -6.23674    8.07448   14.94940
      H1    -5.46857    7.57372   15.32338
       H    -4.02899    5.36218    5.74273
       O    -3.83721    6.27892    6.08841
      H1    -3.39099    6.09247    6.93333
       H    -0.60671   -2.02977    5.65287
       O    -1.20720   -2.41277    6.31090
      H1    -1.41118   -1.78168    6.95119
       H    -3.71703   -1.36382   13.08549
       O    -4.34582   -1.81214   13.70212
      H1    -4.51794   -2.67401   13.27211
       H     4.86253    1.16750    7.11426
       O     3.96314    1.46249    6.96015
      H1     3.75368    2.37419    6.63948
       H    -3.30657    5.87193   16.05350
       O    -4.08826    6.31265   16.41070
      H1    -3.71088    6.99752   16.91675
       H     2.39161    9.34733   13.03004
       O     2.71593   10.25444   13.09791
      H1     1.88571   10.83780   13.16348
       H     1.39754    5.06475   14.31783
       O     2.05487    5.69707   14.68683
      H1     1.75546    5.85367   15.56812
       H    -6.13072    8.27022    9.31593
       O    -6.26688    8.48150   10.22110
      H1    -5.50574    8.07074   10.62162
       H    -2.69805    3.22587    7.29486
       O    -3.51133    2.68411    7.18687
      H1    -4.00624    2.95218    6.39988
       H    -3.23481   -2.47862   11.10711
       O    -3.79829   -3.19444   10.84999
      H1    -4.06932   -3.07632    9.92307
       H    -1.20685    9.29013   14.48911
       O    -0.85617    8.90129   15.32047
      H1    -0.21296    9.52929   15.63279
       H    -3.45174    0.13638    5.73753
       O    -2.68068    0.10194    5.13539
      H1    -1.99155    0.04565    5.81713
       H    -6.53511    6.29528   14.12172
       O    -6.59066    5.44979   13.71902
      H1    -5.70422    5.02932   13.81094
       H     4.32349    4.33512   12.01170
       O     4.04651    5.08281   12.55584
      H1     3.52189    4.74412   13.30870
       H    -0.88043    3.51047    9.09709
       O    -0.94226    3.37467    8.11707
      H1    -0.22786    3.79477    7.70665
       H     4.25532    6.80059   11.91379
       O     4.43126    7.65224   11.39921
      H1     5.39366    7.65640   11.28428
       H     1.58232    0.44129    8.67163
       O     2.52155    0.16787    8.66420
      H1     3.00637    0.78493    8.04886
       H     1.54370    0.80871   12.41626
       O     2.23747    1.31020   11.96823
      H1     2.26750    0.88172   11.14571
       H     2.02002    6.97359    8.41874
       O     1.15196    7.01705    7.98315
      H1     0.94638    7.89809    7.63613
       H     1.17573    7.98999    4.31546
       O     0.30231    7.65131    4.54459
      H1     0.06606    6.88132    4.01383
       H     3.40244    5.77226    8.98760
       O     3.77688    6.69505    8.93331
      H1     3.98455    6.91224    9.86211
       H    -0.74247    1.31293    7.43659
       O    -0.59779    0.45064    7.02623
      H1     0.07836    0.48673    6.35470
       H    -4.99902    4.13744    4.37597
       O    -4.20766    3.68857    4.71827
      H1    -3.60617    3.75577    3.96870
       H    -3.39434    3.80233   14.68221
       O    -4.29324    3.51459   14.33168
      H1    -4.59856    2.83876   14.99745
       H     1.65666    7.18548   13.88268
       O     1.14294    7.92703   13.43867
      H1     0.50707    8.25776   14.09188
       H     4.58052    1.46161   14.11782
       O     4.22554    0.63292   13.66334
      H1     3.46639    0.83807   13.07218
       H    -5.94384    1.55070   12.25685
       O    -6.25970    1.84040   11.37458
      H1    -6.75159    1.11863   11.15211
       H     0.07054    3.85753   12.33453
       O     0.59970    3.68997   13.11325
      H1     1.19798    3.00620   12.81893
       H    -4.64464    2.83184    8.43997
       O    -5.49024    3.08397    8.96823
      H1    -5.44367    2.51007    9.75728
       H    -6.60150    6.72259    7.34280
       O    -5.97139    7.43723    7.45257
      H1    -5.12952    7.04393    7.23236

