177
frame 6 | Written by MDAnalysis XYZWriter (release 2.4.3)
       H    -4.72986   -2.13867  -11.55000
       O    -4.01671   -2.53315  -11.02966
      H1    -3.23098   -2.05355  -11.33847
       H   -10.20489   -1.55675  -10.84389
       O   -10.23353   -1.21769  -11.77505
      H1   -11.10542   -1.47809  -12.08096
       H    -4.80785   -2.83405   -7.59028
       O    -4.19454   -2.09775   -7.41211
      H1    -4.27626   -1.42420   -8.15726
       H    -4.64260   -0.62830   -6.30383
       O    -4.93342    0.19880   -5.88138
      H1    -4.14485    0.48128   -5.39602
       H    -7.97085   -1.37292   -8.69142
       O    -8.07944   -2.16820   -9.20309
      H1    -7.29489   -2.39045   -9.69155
       H    -2.00413   -5.23044   -5.82638
       O    -2.85566   -4.92330   -6.18602
      H1    -2.51425   -4.31614   -6.80478
       H    -7.78002    0.58820  -14.66515
       O    -7.92553    1.30242  -15.31382
      H1    -7.32194    1.07514  -16.04143
       H    -3.50580   -2.34515  -16.77547
       O    -2.99175   -2.45736  -15.98763
      H1    -3.61022   -2.32640  -15.22450
       H     0.07709   -4.46616  -10.81129
       O    -0.07271   -3.62076  -10.37323
      H1    -0.68126   -3.79459   -9.69803
       H    -1.14410   -6.34950  -10.67785
       O    -1.83041   -6.17945  -10.05424
      H1    -2.61527   -5.90549  -10.59320
       H    -7.99934   -5.20454  -10.61089
       O    -7.91854   -5.52361   -9.71999
      H1    -7.94172   -6.51048   -9.77232
       H    -7.67358   -4.64562   -4.72361
       O    -6.89487   -4.09144   -4.57117
      H1    -6.60270   -3.89468   -5.48111
       H    -6.82212    1.33015   -8.43624
       O    -7.04614    0.55979   -7.91168
      H1    -6.46977    0.62134   -7.13736
       H    -4.80485   -0.38321  -14.93280
       O    -5.47508   -1.06067  -14.86544
      H1    -5.61321   -1.27101  -13.98474
       H    -7.31153   -5.62572   -7.57160
       O    -7.93281   -6.17450   -7.05796
      H1    -7.25661   -6.68459   -6.50931
       H    -7.62672    1.66924  -11.79455
       O    -7.76908    0.72604  -12.05067
      H1    -8.70133    0.46534  -11.92049
       H     1.66839    2.40439   -9.57771
       O     0.93031    1.75278   -9.49137
      H1     0.65372    1.59207  -10.45791
       H    -7.63672    2.91488   -9.28354
       O    -6.66887    3.10580   -9.11579
      H1    -6.54505    3.76031   -8.37155
       H    -1.08067   -2.93668   -7.18218
       O    -1.73133   -3.01560   -7.90508
      H1    -2.56115   -2.62920   -7.54754
       H    -6.83356   -2.23276  -12.21029
       O    -6.18609   -1.52791  -12.16197
      H1    -6.58259   -0.67009  -12.28225
       H    -7.40395   -9.16190  -10.20376
       O    -7.61808   -8.37808   -9.67843
      H1    -6.77719   -7.97621   -9.48939
       H   -11.53005   -5.00864  -13.27712
       O   -10.62994   -4.96869  -12.85394
      H1   -10.42622   -5.90276  -12.68534
       H   -10.23139   -3.05948  -15.86372
       O    -9.63859   -3.58489  -15.36771
      H1   -10.03054   -3.70120  -14.49641
       H    -2.72581   -5.46100  -16.04532
       O    -3.54286   -4.97420  -16.00339
      H1    -3.48043   -4.04206  -15.85942
       H     0.04761    1.00969  -12.69110
       O    -0.35707    1.88112  -12.68370
      H1    -1.31509    1.91057  -12.40155
       H    -4.11475   -0.64670  -18.80844
       O    -4.00999   -1.47555  -18.37960
      H1    -4.06855   -2.18246  -19.02643
       H     0.71633   -0.96750  -10.38010
       O     1.67695   -0.88994  -10.44589
      H1     1.77219   -0.00627  -10.05175
       H    -6.36468   -8.24732  -13.72255
       O    -5.46614   -8.49009  -13.56189
      H1    -4.84896   -7.71086  -13.61729
       H    -7.47321    0.60643  -18.08009
       O    -6.77008    0.15158  -17.58319
      H1    -6.57109   -0.60428  -18.14435
       H    -3.36936    3.27655  -11.51173
       O    -2.59808    3.82986  -11.51079
      H1    -3.09913    4.64368  -11.20080
       H    -4.72283   -6.49759   -9.92819
       O    -4.93372   -7.30925   -9.42787
      H1    -4.42614   -7.24284   -8.58115
       H    -3.80639    0.29446  -11.68420
       O    -3.10888   -0.22770  -12.11908
      H1    -2.31280   -0.20243  -11.55717
       H    -9.90876   -1.44533   -5.22854
       O    -9.41045   -1.25120   -6.05611
      H1    -9.17630   -2.08681   -6.44180
       H     1.55408   -0.90110  -13.02071
       O     0.69554   -0.48099  -13.36686
      H1     0.04504   -1.18364  -13.35926
       H    -4.54549    1.30020  -10.07104
       O    -4.41661    1.89213  -10.86765
      H1    -5.32053    2.06928  -11.11453
       H    -1.21336   -0.00176   -9.40464
       O    -1.09631   -0.62679  -10.14810
      H1    -1.31396   -1.46105   -9.77623
       H    -0.80313   -4.21209  -17.85419
       O    -0.81385   -3.29514  -18.25206
      H1    -1.27213   -2.77190  -17.61053
       H    -2.48428    0.47632  -15.10151
       O    -3.36170    0.73281  -14.68590
      H1    -3.26556    0.52788  -13.77506
       H    -3.35531    2.28028  -15.88589
       O    -3.24726    2.78223  -16.68256
      H1    -3.51705    3.66733  -16.40958
       H    -0.47485   -0.16599  -16.56988
       O    -1.41985   -0.14589  -16.61747
      H1    -1.63957   -1.00289  -16.22437
       H    -4.19323   -4.35116  -10.98727
       O    -4.16494   -5.32448  -10.88541
      H1    -4.15997   -5.48334  -11.83691
       H    -9.21339   -4.85715   -7.10960
       O    -9.59091   -4.00911   -7.41317
      H1    -9.10305   -3.94753   -8.21824
       H    -4.72186   -7.54845   -6.65464
       O    -3.81795   -7.49382   -6.99062
      H1    -3.42765   -6.67975   -6.60809
       H    -3.50037   -5.97580  -14.14857
       O    -4.19653   -6.00709  -13.43542
      H1    -4.96855   -5.54907  -13.76025
       H    -0.62468   -2.85126  -12.08106
       O    -0.98983   -2.52060  -12.86365
      H1    -0.68160   -3.21252  -13.50623
       H    -8.83523   -3.98877  -12.34533
       O    -7.85714   -3.99084  -12.32085
      H1    -7.54968   -4.39108  -13.13646
       H    -5.58887   -0.14389   -9.22293
       O    -4.63029   -0.28878   -9.38779
      H1    -4.54706   -0.89665  -10.06730
       H    -8.05054   -2.87621  -15.73606
       O    -7.14923   -2.78862  -16.26846
      H1    -6.65361   -2.13553  -15.79233
       H    -5.08381   -5.96018  -17.16404
       O    -5.45627   -6.34601  -17.92375
      H1    -4.98272   -7.15879  -18.02117
       H    -6.47339   -4.18187  -15.18956
       O    -6.49185   -4.94478  -14.54812
      H1    -6.83579   -5.72190  -14.96086
       H     0.51757   -7.63748   -7.78069
       O     0.15390   -6.73105   -8.01471
      H1    -0.54225   -6.85176   -8.71138
       H    -1.90067    3.74091   -8.37124
       O    -2.87418    3.64859   -8.18721
      H1    -3.33398    3.59474   -9.03868
       H    -2.13634   -8.10392  -10.12309
       O    -2.76300   -8.85736  -10.03864
      H1    -3.60745   -8.44233   -9.83224
       H    -6.62018    3.87992  -11.07402
       O    -6.93526    3.32602  -11.84552
      H1    -7.15255    3.98308  -12.54072
       H     0.02094   -5.56355  -14.12850
       O    -0.11788   -4.62664  -14.31667
      H1     0.66939   -4.47930  -14.87987
       H   -11.10375   -0.00272   -8.72189
       O   -10.38938    0.20036   -8.09819
      H1   -10.09049   -0.47773   -7.47053
       H    -2.34560    0.70207   -6.87073
       O    -1.98026    0.96934   -7.70524
      H1    -2.51498    1.75402   -8.03580
       H     1.88738   -1.86294   -8.85387
       O     1.74302   -2.81693   -8.62333
      H1     1.19633   -3.14850   -9.36136
       H    -4.85517   -5.18312   -7.10812
       O    -5.51470   -4.67426   -7.58318
      H1    -5.59732   -5.14223   -8.41976

