177
frame 1 | Written by MDAnalysis XYZWriter (release 2.4.3)
       H    -1.38935   -9.95078   -0.50711
       O    -0.81374  -10.68791   -0.70242
      H1    -0.52623  -11.19860    0.03874
       H     4.35122   -8.74843    3.81817
       O     5.07490   -8.54632    3.24469
      H1     4.65943   -8.12095    2.47615
       H     0.87421   -8.02587    1.51972
       O     0.73460   -8.12478    0.57092
      H1     1.23076   -7.46918    0.07918
       H     0.63256  -11.98115   -6.31925
       O    -0.22835  -12.33995   -6.50846
      H1    -0.66289  -12.74792   -5.70409
       H     9.53336  -12.79685   -0.05726
       O     8.58669  -12.99882    0.10646
      H1     8.17236  -12.14437   -0.16314
       H     1.89004  -18.92018   -2.79891
       O     2.54178  -19.34829   -2.19950
      H1     2.43249  -18.82866   -1.36327
       H    -0.00856  -16.29803    1.69115
       O     0.94914  -16.37683    1.87183
      H1     1.46401  -15.59035    1.67377
       H     0.39232  -13.42391    5.61078
       O     0.17383  -12.49927    5.87821
      H1     0.98315  -12.18759    6.26447
       H     3.09867  -11.01918   -5.92127
       O     2.15173  -10.90175   -5.84300
      H1     1.92146  -11.06978   -4.89721
       H     8.92416  -15.84666    2.17630
       O     9.67913  -16.06101    2.67546
      H1     9.29395  -16.63384    3.37757
       H     3.75945  -13.99338    1.46338
       O     3.29538  -14.74594    1.90471
      H1     3.79316  -15.59283    1.68636
       H     7.97089  -14.44104   -0.77713
       O     7.55795  -15.30193   -0.64819
      H1     8.32668  -15.89546   -0.40367
       H     7.41774  -10.12732   -2.11989
       O     8.34356  -10.35023   -1.78574
      H1     8.73644  -10.84801   -2.48895
       H     8.70829  -18.58929   -0.77739
       O     8.39174  -18.34914    0.11642
      H1     7.45755  -18.11356   -0.05712
       H     5.84543  -14.00107   -5.06470
       O     5.11721  -13.41055   -5.15955
      H1     4.37483  -13.97383   -5.22241
       H     4.86442  -10.34208    0.86000
       O     5.84760  -10.42594    0.83778
      H1     6.25026   -9.79402    1.50512
       H     2.55772  -10.51825    1.67854
       O     2.81469  -10.86260    0.78520
      H1     2.32326  -10.26006    0.27707
       H    -2.35107  -14.58626   -4.19441
       O    -1.87547  -13.76382   -4.43275
      H1    -2.48905  -13.06097   -4.65756
       H     0.67964  -12.89408   -3.87358
       O     1.34313  -12.25091   -3.66682
      H1     0.86181  -11.62456   -3.12577
       H     5.80513  -11.81606    2.00693
       O     5.64232  -12.53635    2.62549
      H1     5.80702  -13.29045    2.08969
       H     7.88922  -18.04626   -5.00804
       O     7.40671  -17.26034   -5.35771
      H1     7.96764  -16.56873   -5.65731
       H     5.67560  -14.41160   -0.88455
       O     5.15451  -13.74267   -0.42478
      H1     4.79874  -13.15672   -1.14234
       H    -0.01686  -14.98943    4.33123
       O     0.52696  -15.22258    5.10536
      H1     1.35200  -14.95328    4.75193
       H     4.66406  -17.62042    2.43721
       O     4.86227  -16.91775    1.86625
      H1     5.61166  -16.30991    2.10128
       H     7.70859  -14.56132    2.63442
       O     7.08979  -15.09418    2.09110
      H1     7.17030  -14.86506    1.11013
       H     5.35598  -10.53540   -6.04118
       O     4.70983  -11.02517   -6.62718
      H1     4.91334  -11.93747   -6.44236
       H     6.89264  -15.51149   -2.52382
       O     6.22998  -15.86393   -3.21370
      H1     6.74365  -16.37587   -3.76367
       H    -2.26630   -7.42148    0.04028
       O    -2.03320   -8.32305    0.29670
      H1    -1.11272   -8.27407    0.43371
       H     0.66647  -18.56492   -4.71454
       O     0.35145  -18.98104   -3.94914
      H1    -0.20025  -18.38962   -3.46283
       H    -5.61553  -15.20137   -0.71294
       O    -4.95465  -14.69976   -1.19857
      H1    -4.14259  -15.24292   -1.07432
       H     3.94981  -16.68038    5.53172
       O     3.44575  -17.39278    5.94699
      H1     2.50526  -17.22141    5.71421
       H     4.94771  -11.73603    5.74344
       O     4.77998  -12.59811    5.32109
      H1     5.05842  -12.51454    4.42142
       H     2.99952   -6.98763   -1.20462
       O     2.75822   -7.58992   -1.90671
      H1     2.74637   -6.99463   -2.64343
       H    -1.39555  -14.58520   -1.57100
       O    -2.12379  -15.16907   -1.33268
      H1    -1.91636  -16.02513   -1.74006
       H    -1.57272  -11.22747    3.03491
       O    -2.37874  -11.62656    2.66814
      H1    -2.78517  -10.95494    2.11444
       H    -2.01052  -15.56803    0.69328
       O    -1.83649  -16.18594    1.44674
      H1    -1.68365  -15.59365    2.19043
       H     3.45770  -17.61302   -2.54694
       O     3.61358  -16.63387   -2.48868
      H1     4.51179  -16.51069   -2.67120
       H    -0.47254  -11.34108    4.62095
       O    -0.28376  -10.63131    3.99045
      H1    -0.48307   -9.81399    4.49477
       H     2.62862  -15.73969   -1.08487
       O     2.09048  -14.91290   -1.08662
      H1     2.65936  -14.15152   -0.78755
       H    -2.22190  -17.58046   -3.05701
       O    -1.47286  -17.82095   -2.53040
      H1    -1.76185  -18.40429   -1.84638
       H     1.45142  -10.89286    3.77953
       O     2.40769  -10.97649    3.49334
      H1     2.79440  -11.57572    4.10238
       H     3.10677  -15.65257   -3.90141
       O     2.67422  -15.33106   -4.65173
      H1     2.05790  -14.70670   -4.29985
       H    -0.05308  -12.17269    1.91294
       O     0.29217  -12.32389    1.08038
      H1     1.16278  -12.03844    1.05811
       H     3.99761  -14.33015    4.80980
       O     3.48012  -15.08014    4.48333
      H1     3.53106  -14.90223    3.54686
       H     1.97333  -17.67157    0.80535
       O     2.65562  -18.26817    0.47755
      H1     3.44548  -17.87437    0.82942
       H     1.02813  -15.95496   -7.55388
       O     0.09033  -15.64539   -7.69043
      H1    -0.19932  -16.08384   -8.48737
       H     0.75805  -18.70242    4.50685
       O     0.65114  -18.84693    3.52197
      H1     1.12058  -18.05907    3.08738
       H    -1.92036  -13.33488    3.15369
       O    -1.69244  -14.21513    3.46883
      H1    -2.30289  -14.35749    4.23447
       H     3.59828  -16.07276   -7.79037
       O     2.99099  -16.59973   -7.23223
      H1     2.95142  -16.00456   -6.48019
       H     4.65473  -12.57044   -3.56309
       O     4.19273  -12.45448   -2.68454
      H1     3.31291  -12.07984   -2.90417
       H     8.99422  -11.93848    3.24185
       O     8.95211  -12.90128    3.21066
      H1     9.14631  -13.16086    2.29458
       H     7.42022   -7.62139   -1.63658
       O     6.50081   -7.32365   -1.68831
      H1     5.88756   -8.05567   -1.91790
       H     7.94568  -14.07581   -6.59951
       O     8.00021  -14.16873   -5.67730
      H1     8.92770  -14.08798   -5.55626
       H     4.42631  -17.60446   -6.55573
       O     5.11047  -18.30836   -6.56231
      H1     5.82636  -17.79436   -6.17016
       H     0.03195   -8.35889   -2.93055
       O    -0.78205   -7.87771   -2.85963
      H1    -1.11611   -7.86745   -3.76161
       H    -4.02662   -9.98733   -2.56127
       O    -3.40609  -10.71088   -2.67285
      H1    -2.51054  -10.52928   -2.28633
       H     0.52760   -9.80649   -1.74497
       O     1.03919   -9.57890   -2.49730
      H1     1.83927   -9.04759   -2.18023
       H     8.80840  -11.44985   -5.15272
       O     8.27518  -11.68406   -4.39568
      H1     7.93234  -12.56594   -4.65788
       H     5.67362  -10.20353   -0.89819
       O     5.53619  -10.13022   -1.86306
      H1     5.23311  -10.94920   -2.32343

