177
frame 8 | Written by MDAnalysis XYZWriter (release 2.4.3)
       H     8.78491   -1.24301   -0.50552
       O     8.57102   -2.14801   -0.81427
      H1     9.07394   -2.72467   -0.22965
       H     7.00653   -0.30045    3.04402
       O     7.45423   -1.09226    3.41863
      H1     7.32819   -1.77460    2.78833
       H     4.74479   -1.40804   -2.33328
       O     4.41498   -2.05716   -2.93229
      H1     5.08668   -2.79449   -2.84368
       H    12.43083   -2.47656   -0.44819
       O    12.98970   -2.09589   -1.13101
      H1    13.48990   -2.84403   -1.55686
       H     1.65441    3.35263    4.49419
       O     1.56126    3.87018    5.28422
      H1     2.29722    4.46643    5.27392
       H     7.43931    4.21364    3.85454
       O     7.31893    3.24225    3.90104
      H1     7.31965    2.94659    4.81076
       H     7.26347   -2.69532    0.57076
       O     7.09745   -3.03153    1.49708
      H1     6.13821   -3.12503    1.48296
       H     1.83860    5.04148    0.94072
       O     2.44980    4.46389    1.33354
      H1     2.25706    3.55831    0.96331
       H     4.39591   -4.23435    8.08053
       O     5.06709   -4.36808    8.76743
      H1     4.57556   -4.72273    9.56141
       H     1.74783    0.95876    0.04009
       O     2.21515    1.74377    0.30999
      H1     2.85532    1.29471    0.89374
       H     2.59953   -3.28925    7.23348
       O     2.69988   -4.12768    6.81315
      H1     2.22263   -4.71321    7.41858
       H     6.16721   -6.36588    1.66973
       O     6.79827   -5.85941    1.15979
      H1     6.76947   -5.01783    1.56358
       H     9.69056   -3.75892    5.05910
       O    10.59582   -3.34287    5.01677
      H1    11.05503   -3.86747    4.36380
       H     3.24100    6.43664    6.69803
       O     3.52399    6.08191    5.86013
      H1     4.05522    5.27262    6.07400
       H    11.89085   -2.47164    6.62728
       O    11.85188   -2.25202    7.57898
      H1    12.60198   -1.59299    7.70377
       H     4.68601    0.02966    5.95435
       O     3.77123    0.43258    6.11346
      H1     3.92311    1.15399    6.74636
       H     0.49372   -2.40943    3.00586
       O     1.23065   -2.68178    3.49653
      H1     0.97754   -2.83044    4.39386
       H     1.98310   -1.75191   -0.79273
       O     2.57329   -2.53403   -0.90575
      H1     3.11794   -2.20214   -1.63434
       H     5.66122    3.40594    5.72806
       O     5.04893    3.88018    6.29248
      H1     5.37426    4.16766    7.16141
       H    12.20250    3.17002    6.17923
       O    11.33230    3.04639    6.67755
      H1    11.12761    2.06015    6.60836
       H     5.03314   -4.63835    5.96025
       O     5.33372   -5.11119    5.18906
      H1     4.69285   -4.96042    4.45838
       H    10.25727   -1.54486    3.26467
       O    10.22395   -0.59488    3.18738
      H1     9.31525   -0.36710    3.55601
       H     3.92503   -4.33608    2.17183
       O     3.59825   -4.63598    3.02010
      H1     2.91772   -4.00825    3.26896
       H     6.74530    2.88769    0.59127
       O     6.48148    3.56289   -0.06305
      H1     5.49738    3.72910   -0.00487
       H     6.07495    0.49313   -1.20286
       O     5.47542   -0.29297   -1.07727
      H1     5.00851   -0.12265   -0.23798
       H    13.24729   -4.00713    3.68443
       O    13.58024   -3.27938    4.28708
      H1    14.54101   -3.35459    4.21808
       H    10.61744   -6.97687    3.73484
       O     9.79452   -6.74146    3.24873
      H1     9.95189   -7.20198    2.38694
       H    11.84317   -2.86303    1.75736
       O    11.19090   -2.73252    1.00664
      H1    10.71818   -3.59408    1.08337
       H     2.80384    2.85017   -2.96843
       O     2.92325    1.96451   -2.56611
      H1     2.87505    2.21861   -1.65768
       H    11.35384    5.53610    4.37855
       O    10.49995    5.14549    4.67593
      H1    10.77455    4.42723    5.33810
       H     2.97344   -0.10773    4.57073
       O     2.46919   -0.21312    3.71418
      H1     2.19554   -1.15217    3.71864
       H     7.13067    0.70649    6.03814
       O     7.43733    1.60193    6.20848
      H1     8.37764    1.62669    6.41045
       H     7.89705    6.53134    4.23597
       O     7.26811    5.97016    3.69799
      H1     7.36026    6.26793    2.80567
       H     8.03852    1.06813    1.47479
       O     7.20163    1.31834    1.87414
      H1     7.42794    2.09358    2.45655
       H    10.62767    1.77362   -1.61076
       O     9.87996    2.34742   -1.28989
      H1     9.00118    1.99535   -1.50828
       H    12.80686    0.66884   -1.75005
       O    11.88616    0.53406   -2.05390
      H1    11.87502   -0.43759   -2.02325
       H    12.04784   -5.17316    2.40054
       O    11.35940   -4.75078    2.99880
      H1    10.62819   -5.37557    3.24277
       H    11.67002    4.08707    1.07991
       O    11.68392    3.90274    2.02661
      H1    11.03159    4.44225    2.46313
       H     7.06156   -4.99882    4.93685
       O     7.99767   -4.91172    4.95135
      H1     8.25669   -5.71417    4.43599
       H    13.35186   -1.57046    3.91443
       O    13.51083   -0.77354    3.40408
      H1    13.01285   -0.03257    3.73479
       H     8.23574   -1.32827    9.62460
       O     7.87896   -0.93472   10.43802
      H1     7.47813   -1.73435   10.80548
       H     6.49047    0.00774   10.21392
       O     5.65563    0.55204   10.03562
      H1     5.66571    1.31787   10.60484
       H     7.18341    2.06231   -2.83967
       O     7.19085    1.72982   -1.93143
      H1     6.96397    2.52415   -1.34021
       H    10.17969   -2.01185    7.77899
       O     9.30516   -1.70835    8.10991
      H1     8.60908   -2.26260    7.77465
       H     2.79387   -0.74741    6.88074
       O     2.35377   -1.44335    7.37945
      H1     2.71024   -1.41312    8.29340
       H     6.10468   -1.92598    6.31896
       O     6.07983   -1.12355    5.80132
      H1     6.53886   -1.30680    4.96132
       H     3.66312    5.13707    0.34538
       O     4.31475    5.16578   -0.35748
      H1     4.73684    6.01951   -0.16549
       H    11.04348   -4.79378    6.44247
       O    10.72130   -5.59196    6.91393
      H1    11.10741   -5.51523    7.80486
       H     3.87785   -3.22515   -0.03376
       O     4.49874   -3.60224    0.61104
      H1     5.09749   -4.24808    0.19997
       H     6.41592   -4.00485    7.82450
       O     7.01282   -3.56870    7.21151
      H1     7.68274   -4.24593    7.26899
       H     0.53057    2.06691    2.68658
       O     0.74740    1.89652    3.56573
      H1     1.17081    1.03765    3.57941
       H    11.09896    0.80396    3.60564
       O    11.81495    1.25131    4.12764
      H1    11.98958    2.09275    3.70854
       H     9.33569   -0.95925   -3.68808
       O     9.29887   -1.91113   -3.58332
      H1     9.14671   -2.15262   -2.63423
       H     4.90946    1.81422    8.36906
       O     4.05203    2.14851    8.13656
      H1     4.34609    2.77540    7.39238
       H     4.85736    0.85020    2.13859
       O     4.16117    0.36943    1.70806
      H1     3.56323    0.02811    2.43109
       H     0.39666   -0.94498    0.37544
       O     0.69557   -0.42851   -0.40697
      H1    -0.09908   -0.14460   -0.92639
       H     7.89112    5.14241    0.58696
       O     8.13538    5.97780    1.01804
      H1     9.07860    5.89853    1.28075
       H     9.81588   -0.27602    7.17511
       O    10.09813    0.40245    6.55286
      H1    10.61063   -0.08896    5.87942
       H     9.98294    0.73542   -0.04739
       O     9.49722    0.15728    0.54145
      H1    10.19407   -0.20941    1.09808

