177
frame 0 | Written by MDAnalysis XYZWriter (release 2.4.3)
       H   -15.04700   -5.86086    9.32931
       O   -15.70501   -6.53980    9.28091
      H1   -16.53341   -6.12539    8.96906
       H   -17.63458    0.61431   10.19123
       O   -18.37158    0.87763   10.77855
      H1   -18.28089    1.76758   11.08548
       H   -19.29496    4.31055    9.59294
       O   -19.35954    4.74215   10.44178
      H1   -18.88895    4.08561   10.95622
       H   -17.69841  -10.54162   10.55703
       O   -17.49722  -11.27124   11.15353
      H1   -18.12638  -11.25788   11.89438
       H   -15.75330   -3.61870   12.74735
       O   -15.68538   -3.86285   13.69578
      H1   -16.55505   -3.75574   14.08407
       H   -16.87246    3.42592    7.56247
       O   -17.18463    2.62296    7.17078
      H1   -17.96190    2.35766    7.61878
       H   -19.69511   -5.12835   11.90292
       O   -18.75834   -4.80173   11.92827
      H1   -18.81973   -3.81073   11.78915
       H   -14.17554   -0.43928   15.66286
       O   -13.24568   -0.40663   15.89704
      H1   -13.01330   -1.03065   15.13607
       H   -14.29664   -9.65240   15.43841
       O   -14.28531  -10.30722   16.18174
      H1   -15.17912  -10.22622   16.53967
       H   -14.40791   -8.98513    7.45707
       O   -14.94279   -9.15423    8.22591
      H1   -15.11174   -8.26861    8.54693
       H   -17.68793    4.98537   15.20450
       O   -16.90388    4.59271   14.74031
      H1   -16.94725    3.74078   15.14838
       H   -15.78871   -1.62367   11.26996
       O   -15.83996   -2.57823   10.98563
      H1   -16.76640   -2.79965   10.82833
       H   -18.91267    2.58080   13.17800
       O   -18.37862    3.22041   12.67449
      H1   -17.86132    3.67537   13.36530
       H   -17.73349   -7.65291   10.50240
       O   -18.06758   -8.42188   10.96754
      H1   -18.94974   -8.57438   10.64310
       H   -15.81512    2.14428    4.65018
       O   -16.12531    1.39361    5.10707
      H1   -16.55605    1.71294    5.92405
       H   -17.24137   -8.14192   12.56810
       O   -17.01973   -8.02775   13.50072
      H1   -16.02868   -8.07015   13.54603
       H   -12.50596   -6.31326   10.44987
       O   -11.91164   -6.89745   10.93317
      H1   -11.41030   -7.40073   10.34238
       H   -17.86618   -8.70719    6.79198
       O   -17.52887   -9.05757    7.61661
      H1   -16.55847   -9.02067    7.66126
       H   -13.14196   -4.17477    9.59917
       O   -13.28805   -5.15293    9.33663
      H1   -12.65653   -5.17323    8.59269
       H   -17.87714   -5.71818   14.73915
       O   -18.70672   -5.27789   14.51893
      H1   -18.61658   -5.12489   13.54203
       H   -15.47468    0.78767   12.29395
       O   -16.06274    0.04540   12.59154
      H1   -16.92169    0.28954   12.33218
       H   -16.48116    1.08625    8.11515
       O   -16.30104    0.36890    8.72488
      H1   -16.25678   -0.47105    8.24780
       H   -19.83247   -1.76977   19.44877
       O   -19.47891   -2.63602   19.17267
      H1   -19.35870   -2.45916   18.20635
       H   -14.31413    0.63710    9.58128
       O   -13.66599    1.28704    9.76574
      H1   -12.84871    0.81879    9.55589
       H   -14.60663  -11.53522   13.03583
       O   -14.96842  -10.85829   12.41427
      H1   -15.89241  -11.08749   12.10527
       H   -18.61766   -6.03781   18.45148
       O   -17.72386   -5.95325   18.06018
      H1   -17.49303   -5.06279   18.22033
       H   -19.28578  -12.40450    7.07756
       O   -19.60789  -11.50953    7.38339
      H1   -18.81495  -10.96223    7.37920
       H   -15.99732   -0.13851   14.31456
       O   -15.92070   -0.24840   15.25034
      H1   -16.19747   -1.20182   15.34466
       H   -16.41544   -1.19840   18.63395
       O   -17.24913   -0.97053   19.06497
      H1   -17.70063   -1.77923   19.31285
       H   -18.56033   -8.17243    4.23958
       O   -17.84924   -8.17570    4.93483
      H1   -17.41558   -7.33639    4.85423
       H   -12.23267   -7.00898   12.60407
       O   -12.28347   -7.20762   13.57042
      H1   -12.78799   -6.42237   13.87071
       H   -13.64773   -5.95356    5.02277
       O   -14.16686   -5.21093    5.40336
      H1   -13.74024   -4.72024    6.16244
       H   -14.76196  -11.67648   10.51070
       O   -14.89650  -11.61814    9.52383
      H1   -14.63943  -10.73919    9.23123
       H   -16.21966   -2.09950    6.85072
       O   -16.06027   -2.52336    7.74778
      H1   -15.05280   -2.55327    7.85253
       H   -18.98977   -3.95008   15.99863
       O   -19.36660   -3.19113   16.40576
      H1   -19.61484   -2.70833   15.63391
       H   -12.56871   -2.20364   10.87379
       O   -13.10829   -2.42794   10.13223
      H1   -14.00088   -2.65975   10.47194
       H   -13.88048    2.34637   12.84144
       O   -14.41072    2.26966   12.07417
      H1   -13.97957    1.81375   11.31584
       H   -19.81785   -2.68949    6.96455
       O   -19.45437   -1.84125    6.70025
      H1   -18.83570   -2.03792    6.03546
       H   -15.63255   -8.18774   19.33042
       O   -16.58142   -7.98882   19.36402
      H1   -16.89968   -7.21570   18.78600
       H   -13.81769   -6.38902   17.31994
       O   -14.14924   -5.64626   16.82653
      H1   -14.99672   -5.89737   16.46842
       H   -17.76025   -4.27705    4.20719
       O   -18.07859   -3.97248    3.33748
      H1   -17.15950   -3.88063    2.98037
       H   -16.74559   -6.99647   15.07944
       O   -16.41916   -6.34705   15.65325
      H1   -17.12552   -6.32911   16.35356
       H   -12.64138   -2.93263   13.97388
       O   -12.43412   -1.95879   13.88469
      H1   -11.77599   -1.88226   13.19966
       H   -16.47007   -0.48313    5.06612
       O   -16.71599   -1.40669    5.13026
      H1   -16.01987   -1.83669    4.62829
       H   -17.20940  -10.06180   16.47898
       O   -16.76210   -9.87740   17.33596
      H1   -17.16529   -9.07006   17.68961
       H   -16.15558   -2.79715   16.86748
       O   -16.80882   -2.63272   16.16746
      H1   -17.65912   -2.81651   16.57533
       H   -18.30443   -4.47312    8.77344
       O   -17.55460   -4.73460    8.23045
      H1   -17.05484   -3.90267    8.20285
       H   -10.35060   -5.48329   13.43231
       O   -10.13897   -5.54149   12.48015
      H1   -10.83041   -6.03305   12.08247
       H   -19.37711   -1.77460   11.05804
       O   -18.69900   -2.19140   11.57608
      H1   -19.02457   -1.95420   12.47584
       H   -10.32299   -5.27928   15.68051
       O   -10.36872   -4.52819   15.01321
      H1   -11.35435   -4.46663   14.96209
       H    -9.83901   -2.26098   12.08427
       O   -10.59374   -1.82896   11.76883
      H1   -10.30457   -0.93317   11.73928
       H   -18.70676  -10.41847   14.19452
       O   -18.43516   -9.79196   14.89754
      H1   -18.02292   -9.15126   14.28140
       H   -18.78038    1.97243   18.30566
       O   -18.92304    1.12860   17.92754
      H1   -18.18007    0.62832   18.21573
       H   -16.12051   -5.08771    5.25408
       O   -17.02504   -5.23354    5.51468
      H1   -17.14173   -5.07564    6.45758
       H   -18.24728    1.66295   16.43392
       O   -17.74897    1.91429   15.57722
      H1   -17.05469    1.19570   15.45428
       H   -14.54157   -4.19525   17.67787
       O   -14.86914   -3.51167   18.28672
      H1   -14.18154   -3.26292   18.89537
       H   -13.50823   -2.05364    6.60178
       O   -13.55443   -2.82599    7.21856
      H1   -13.20209   -2.53164    8.06529
       H   -13.24980   -4.90642   15.51944
       O   -13.09134   -4.45466   14.66194
      H1   -14.00168   -4.19907   14.45734
       H   -14.47601   -9.43905   13.16312
       O   -14.38510   -8.80807   13.88474
      H1   -13.59217   -8.24941   13.72355

