177
frame 0 | Written by MDAnalysis XYZWriter (release 2.4.3)
       H    16.98398   13.46554    3.12700
       O    16.45951   13.09319    2.38835
      H1    16.83584   12.22853    2.26136
       H    17.30267    4.84586    6.40557
       O    17.30596    3.97010    6.84108
      H1    16.53380    3.98729    7.49805
       H    16.66686    6.72114    5.07545
       O    17.41722    6.20607    5.11377
      H1    18.25174    6.73900    4.98264
       H     9.59911    6.38662   10.45453
       O     9.68464    7.30174   10.17821
      H1     8.87649    7.80380   10.50448
       H    18.27654    5.28942   11.16520
       O    17.69751    5.50082   11.85878
      H1    17.36377    4.71309   12.35427
       H    18.11044   10.24123    0.65080
       O    18.53545   10.49368    1.46308
      H1    19.46017   10.17378    1.23600
       H    14.28369    3.75962    2.27009
       O    15.05959    3.72392    1.69567
      H1    15.36522    2.82312    1.61088
       H    14.66790    2.72132    9.15535
       O    15.54458    3.11154    8.98616
      H1    15.39269    4.02595    9.37666
       H    13.86005    8.77027    2.17379
       O    14.52975    8.06800    2.41656
      H1    14.94027    7.83870    1.53623
       H    18.25002   10.37915   12.22053
       O    18.53583   10.34805   13.15843
      H1    18.65094    9.38608   13.33960
       H    10.94046    9.14672   13.73583
       O    11.32444    9.29454   12.87373
      H1    11.19773    8.43652   12.41696
       H    13.17253    2.11111    6.59564
       O    13.32517    1.72612    5.68984
      H1    13.25619    2.48615    5.07179
       H    11.71015    8.73422    8.60391
       O    11.58461    9.30372    7.84361
      H1    11.50019   10.15650    8.22011
       H    12.68022    4.55104    5.08973
       O    12.61289    3.94216    4.33368
      H1    11.64202    3.77620    4.30094
       H     9.46627    7.35033    4.49410
       O    10.29757    6.92546    4.84436
      H1    10.98872    7.05829    4.22326
       H    15.00025    9.97957    8.44960
       O    15.19576    9.33405    9.19480
      H1    15.70527    8.67703    8.79799
       H    16.00738    2.29098   12.26053
       O    15.70659    2.91233   13.00054
      H1    15.25219    2.41022   13.64892
       H    13.08893    5.99450   14.25387
       O    12.59715    5.57145   13.57733
      H1    12.02233    4.85124   13.84873
       H    14.75443    9.69318   11.30747
       O    14.42334    9.90332   12.15099
      H1    13.47453    9.64275   12.03354
       H    12.92845    6.03617    7.01776
       O    12.70319    6.01048    6.09870
      H1    11.84992    6.49104    5.96898
       H    15.87534    8.79795    2.86154
       O    16.64133    9.17822    3.38894
      H1    17.43851    9.20850    2.74802
       H    16.61872    0.39643    5.33923
       O    16.98119   -0.25962    4.71515
      H1    16.31040   -0.35362    4.02125
       H    18.85760    1.70404    8.39378
       O    19.51328    2.39637    8.17565
      H1    18.99815    3.11443    7.75861
       H    18.91075    9.01968    7.07100
       O    19.06778    8.39292    7.78138
      H1    18.32755    7.74510    7.81741
       H    15.04818   13.85690    9.60159
       O    15.01920   14.78313    9.31847
      H1    15.65799   15.34594    9.84779
       H    18.66804    9.76748    4.84570
       O    18.52806   10.21687    5.69937
      H1    19.27560   10.87052    5.70348
       H    18.60948   -0.67192    7.32113
       O    17.99545   -0.17930    7.89755
      H1    17.27473    0.21289    7.40837
       H    16.09272    6.80006    8.38156
       O    16.47264    7.38004    7.72260
      H1    16.09438    7.24752    6.87180
       H     9.45672    6.77765    8.25177
       O     9.22742    6.22761    7.52724
      H1     9.35515    6.62629    6.67497
       H     9.99055   10.07649    5.54750
       O     9.02629   10.20215    5.77108
      H1     8.75023   11.05284    5.39448
       H    18.92821    1.88717    5.02889
       O    18.96033    2.14207    4.10282
      H1    18.30747    2.82956    3.98165
       H    16.98320   11.68105    8.29282
       O    16.90187   11.91310    7.36137
      H1    17.36845   11.26898    6.80645
       H    15.16408    8.00654    4.67451
       O    15.01764    7.42136    5.40230
      H1    14.17150    7.01188    5.43872
       H    13.90467   12.97137    5.02602
       O    13.18211   13.62058    5.14572
      H1    13.19594   13.96020    6.10305
       H    18.02046   14.46184   12.88124
       O    17.44813   14.03802   12.19299
      H1    17.17180   13.20683   12.61830
       H    16.90140   11.09747   13.83528
       O    16.03622   11.29506   14.31491
      H1    15.39796   10.73442   13.82488
       H    12.30281    6.72209   11.75118
       O    12.29349    7.34782   10.98471
      H1    11.34310    7.34910   10.66813
       H    18.50774    6.85544   13.51398
       O    18.63742    7.77990   13.63902
      H1    19.03343    7.94064   14.49337
       H    15.15690   11.46833    7.19057
       O    14.23531   11.12119    7.33114
      H1    13.90719   10.99867    6.43652
       H    16.31303    1.97670   10.17425
       O    16.29622    1.38536   10.90608
      H1    17.18484    0.95013   10.83185
       H    15.69067   11.22303    5.17982
       O    15.05067   11.70389    4.65241
      H1    15.51958   12.10979    3.94414
       H    12.64083    5.95043    9.82979
       O    12.57592    5.39515    9.05166
      H1    11.81493    4.83593    9.23351
       H    11.80746   10.44499    6.38899
       O    11.80787   10.79899    5.49501
      H1    12.02334   11.73110    5.61245
       H    16.61834    3.90767    2.79781
       O    17.47312    4.18624    3.20663
      H1    17.28017    4.97970    3.75886
       H    13.50251    4.67020   12.17622
       O    13.71635    3.82677   11.72862
      H1    14.50636    3.42502   12.11690
       H    10.53927    3.50286    7.45182
       O    10.69025    3.38930    8.37388
      H1    10.08643    2.72485    8.68991
       H    16.31818    2.40763    6.68415
       O    16.11280    1.43080    6.66280
      H1    15.15424    1.39739    6.63233
       H    11.56859    8.19170    1.90224
       O    11.83518    7.37034    2.36523
      H1    12.77800    7.39761    2.59255
       H    11.05157   12.64985    8.88875
       O    11.71565   12.29527    9.53714
      H1    11.32696   12.27662   10.42265
       H    18.83896   10.36795   10.26620
       O    17.88742   10.40677   10.58988
      H1    17.47825    9.54630   10.28329
       H    16.46151    7.28566    0.17498
       O    15.49318    7.27678    0.06777
      H1    15.28387    6.36063   -0.11771
       H    15.49192    8.16680   12.58880
       O    15.63606    7.28570   13.00485
      H1    16.35581    6.93047   12.46253
       H    12.25086    2.49763    8.51013
       O    12.92630    1.90224    8.82328
      H1    12.42339    1.17953    9.26941
       H    13.53083   12.25110    9.92698
       O    14.38048   12.27768   10.45126
      H1    14.42765   11.51824   11.05374
       H    14.60712    5.66265    9.71645
       O    15.56454    5.72004    9.70861
      H1    15.84862    5.66251   10.60937
       H    13.79545   10.90734    3.32422
       O    13.01075   10.37647    3.04631
      H1    12.60898   10.39517    3.91354
       H    17.40322   13.98778    8.70739
       O    18.06333   14.04548    9.40664
      H1    17.55022   13.95583   10.24265
       H    14.57662    7.11445   14.91488
       O    13.97513    6.76799   15.55564
      H1    13.80302    7.60316   16.04343
       H    17.42397    5.46230    1.11378
       O    17.89748    6.09797    0.55559
      H1    18.20377    5.56234   -0.25057

