177
frame 2 | Written by MDAnalysis XYZWriter (release 2.4.3)
       H   -17.76639   11.42098  -11.38403
       O   -18.03967   10.49613  -11.40656
      H1   -18.57302   10.33769  -10.58428
       H   -11.87858   11.08190  -14.29819
       O   -12.83951   10.78656  -14.44921
      H1   -13.27928   11.44879  -13.90583
       H   -17.49047    9.69458   -6.45780
       O   -17.68116    9.80969   -5.49475
      H1   -17.74751    8.91684   -5.11830
       H   -11.40916   12.60283  -11.07628
       O   -11.66629   11.73285  -10.78334
      H1   -12.64482   11.68851  -10.77554
       H   -13.97383   13.27563  -12.87087
       O   -13.96050   12.39025  -12.57969
      H1   -14.84729   11.99117  -12.79273
       H   -15.45374   15.09249  -13.03842
       O   -16.13189   15.38249  -12.36177
      H1   -16.38411   14.53617  -11.91198
       H   -10.90610   16.48826   -9.12797
       O   -11.11206   16.64767  -10.10595
      H1   -10.21719   16.89167  -10.41016
       H   -18.95502   16.65526   -4.51072
       O   -18.70843   17.31842   -5.21158
      H1   -19.36761   17.96901   -4.96984
       H   -14.25300    9.09195  -11.29320
       O   -13.79423    8.26685  -11.60720
      H1   -12.90000    8.51645  -11.73009
       H   -18.11062   16.53332  -12.22237
       O   -18.75562   16.98765  -12.77376
      H1   -18.35357   16.88680  -13.65243
       H   -14.21239   12.12441   -5.99325
       O   -14.21798   12.79496   -6.69769
      H1   -13.33991   12.77957   -7.11154
       H   -12.95760   10.16898   -6.86759
       O   -12.98561    9.78291   -7.71204
      H1   -13.66423   10.27898   -8.17344
       H   -10.98054    9.62204  -12.99979
       O   -11.21089    9.30364  -12.14551
      H1   -11.40128   10.12000  -11.61098
       H   -10.88527   15.44715  -13.77992
       O   -11.02506   14.50751  -13.98728
      H1   -10.50227   14.43743  -14.81485
       H   -13.77543   16.74657   -4.73656
       O   -13.59328   17.58034   -4.27362
      H1   -13.89899   17.40248   -3.35942
       H    -7.29362   13.74448  -11.37985
       O    -7.99069   13.80473  -10.65162
      H1    -8.91628   14.03419  -10.97682
       H    -9.85575   17.47035  -13.09836
       O    -9.51973   16.64836  -12.75076
      H1    -8.56435   16.58994  -12.89018
       H   -14.97098   13.58457   -3.16800
       O   -14.30837   13.00688   -2.87351
      H1   -13.90241   13.32252   -2.05448
       H   -11.03784   16.76652   -6.50851
       O   -11.49948   16.46789   -7.28877
      H1   -12.34963   16.94942   -7.24946
       H   -17.53695   12.74320  -14.23300
       O   -18.29047   13.33158  -14.20359
      H1   -18.97505   12.76865  -13.95276
       H   -12.89905   14.45190  -14.47653
       O   -13.82778   14.77550  -14.29371
      H1   -14.23429   14.79532  -15.16409
       H   -15.34736   11.41072   -3.97578
       O   -15.14702   10.77025   -4.72446
      H1   -16.02524   10.39353   -5.04770
       H    -9.69818   18.34992   -5.17408
       O    -9.75991   17.38004   -5.12608
      H1    -9.04554   17.09280   -5.69290
       H    -6.42906   19.01955   -9.34400
       O    -7.29594   18.86977   -9.80594
      H1    -7.30916   17.86831   -9.79557
       H   -17.79442   13.78609  -11.52825
       O   -17.15479   13.13684  -11.29360
      H1   -17.03244   13.30302  -10.24649
       H   -13.36216   15.04747  -10.05846
       O   -14.18968   15.05732   -9.59445
      H1   -14.81264   15.55620  -10.17965
       H    -8.33323   16.09753   -8.71976
       O    -8.28196   16.44646   -9.62418
      H1    -8.27889   15.67195  -10.15992
       H   -11.43956   12.57510   -4.66719
       O   -11.71146   13.23805   -4.04044
      H1   -12.65935   13.19384   -3.90430
       H    -7.89580   14.87079   -7.05278
       O    -7.86723   15.81890   -6.91955
      H1    -7.14896   15.94739   -6.28927
       H   -15.22848   19.83631  -11.51568
       O   -15.59952   18.95456  -11.20993
      H1   -16.51734   19.12598  -10.91651
       H   -16.18266   15.16433   -4.00596
       O   -16.34958   14.93415   -3.13232
      H1   -17.01749   14.15833   -3.19422
       H   -15.28368   16.25961   -6.22170
       O   -15.26358   15.60714   -5.53293
      H1   -14.71895   14.87612   -5.90191
       H   -15.91034   11.08271  -15.23020
       O   -16.41723   10.83996  -14.42732
      H1   -17.13140   10.22909  -14.66909
       H    -9.57167   10.47506   -7.28767
       O    -9.46868   11.45657   -7.04054
      H1   -10.03174   11.92983   -7.66374
       H   -18.65368   14.73672   -6.49910
       O   -18.56294   13.83515   -6.66806
      H1   -17.96432   13.76674   -7.39133
       H   -18.82117   17.54219  -15.86682
       O   -17.99537   17.76711  -15.36544
      H1   -17.31466   17.79286  -16.06160
       H   -11.36006   13.27429   -8.80128
       O   -11.71890   13.24580   -7.92208
      H1   -11.57775   14.10000   -7.53526
       H   -16.80641   18.11879   -4.92881
       O   -16.28251   18.80727   -4.52800
      H1   -15.31495   18.65050   -4.64392
       H   -19.15130   17.54253   -8.48159
       O   -19.59844   16.85319   -7.92577
      H1   -19.40993   17.12848   -6.98819
       H   -11.24189    8.88574   -7.54654
       O   -10.33756    8.79535   -7.24070
      H1   -10.41746    8.42785   -6.35781
       H   -19.28774   19.03628   -9.94606
       O   -18.41873   18.86078   -9.48283
      H1   -18.41012   19.62338   -8.85631
       H   -14.39662   18.31636   -7.93913
       O   -13.98903   17.43583   -7.71432
      H1   -14.03780   16.94043   -8.57474
       H   -12.44383   16.73648  -14.86911
       O   -12.46150   17.59199  -14.46294
      H1   -13.39644   17.77755  -14.30451
       H    -7.03119   13.20406   -8.59325
       O    -6.97826   13.07874   -7.63228
      H1    -7.58492   12.27206   -7.49007
       H   -15.90011   10.45747   -8.33345
       O   -16.11516   10.97355   -7.55351
      H1   -15.31649   11.37628   -7.27746
       H   -13.90016   14.02587  -17.34834
       O   -14.66473   14.08063  -16.81107
      H1   -15.43007   14.39497  -17.36965
       H   -11.03021   18.53095  -14.74441
       O   -10.13369   18.78708  -14.98991
      H1    -9.89555   19.57088  -14.44406
       H   -11.35358   19.52604  -11.24097
       O   -11.76156   19.46661  -10.34669
      H1   -11.85889   18.51462  -10.17432
       H   -10.71747   14.13864  -12.21347
       O   -10.57507   14.22986  -11.25551
      H1   -10.84636   15.13299  -11.02600
       H   -15.45355   17.78178  -14.65711
       O   -14.97442   18.27909  -13.97400
      H1   -15.42539   18.24345  -13.15821
       H   -14.38771    8.23695  -13.12686
       O   -15.06389    8.34539  -13.83101
      H1   -15.37562    9.26415  -13.79639
       H    -9.37101   11.09942  -14.67970
       O   -10.12998   11.30960  -14.10911
      H1    -9.75291   11.38109  -13.22243
       H   -11.11112   11.08570   -6.11472
       O   -11.86263   10.87977   -5.54598
      H1   -11.67198   10.00816   -5.07410
       H    -8.27844   12.03685  -11.13476
       O    -7.99039   11.16685  -11.43527
      H1    -8.19146   10.58691  -10.65978
       H   -10.38358   14.39597   -3.27240
       O    -9.46842   14.30098   -3.03989
      H1    -9.35137   13.42444   -3.35042
       H   -18.83194   11.11581   -5.59223
       O   -19.56068   11.69191   -5.29268
      H1   -19.35465   12.50768   -5.75754
       H   -13.98900    8.56753   -6.68548
       O   -13.95656    7.75485   -6.09819
      H1   -14.88119    7.66429   -5.83647
       H   -15.64003    8.96516  -10.05383
       O   -15.54572    9.93437  -10.21217
      H1   -16.35218   10.27602  -10.65115
       H   -15.81075   13.84346   -8.46076
       O   -16.59743   13.30687   -8.68179
      H1   -16.47935   12.45003   -8.28864

