177
frame 0 | Written by MDAnalysis XYZWriter (release 2.4.3)
       H    -5.51197   -8.80408    5.63032
       O    -6.10040   -8.15842    5.24421
      H1    -6.87330   -8.66249    5.05066
       H    -1.61240  -10.97287   -0.76307
       O    -1.57299  -11.59261   -1.46302
      H1    -1.59996  -12.44265   -1.11120
       H    -4.73799   -7.50878   -2.86660
       O    -4.60620   -7.99083   -2.02873
      H1    -4.60138   -7.25793   -1.35677
       H    -9.92012  -16.05290   -3.06312
       O    -9.60970  -15.58645   -3.84832
      H1    -8.90070  -16.17044   -4.20607
       H    -7.45684   -7.81567    2.44221
       O    -8.03462   -7.11317    2.06419
      H1    -7.99618   -7.35725    1.09573
       H    -8.32337  -18.80393    1.07948
       O    -8.76828  -19.12864    0.28792
      H1    -9.65102  -19.30556    0.64972
       H    -5.94965  -17.72538    7.08327
       O    -5.43313  -17.24623    6.34812
      H1    -5.79332  -17.48754    5.43302
       H   -11.84447  -17.21328    6.92943
       O   -11.38550  -17.55676    6.21785
      H1   -11.64296  -17.23176    5.42140
       H    -9.35624  -17.12976    3.23720
       O    -8.80373  -17.91927    3.21968
      H1    -9.46090  -18.59510    3.25534
       H    -6.74579  -13.62325    6.46300
       O    -6.75737  -12.75679    6.04413
      H1    -7.67470  -12.42927    6.08814
       H    -9.93120   -8.03652    2.49154
       O   -10.55659   -7.99888    3.22577
      H1   -10.87180   -8.90870    3.39261
       H    -9.69841  -12.85108    4.48271
       O    -9.19491  -12.41115    3.77613
      H1    -9.08718  -13.02569    3.02752
       H   -11.81834  -12.90876    0.26137
       O   -11.12565  -12.47985   -0.25557
      H1   -11.47285  -11.56095   -0.32633
       H    -5.24659  -10.19080    7.17995
       O    -4.98513  -10.47687    6.28647
      H1    -5.47140  -11.34726    6.26180
       H   -15.49663  -15.11817   -0.24114
       O   -14.89189  -15.63527    0.26689
      H1   -15.41875  -16.30905    0.81982
       H    -9.44886  -18.44099   -1.36062
       O    -9.51351  -18.43297   -2.33442
      H1   -10.39163  -18.19418   -2.57750
       H   -11.43433  -10.48885    4.97597
       O   -11.15141  -10.52585    4.03737
      H1   -10.52484  -11.29903    3.95996
       H   -11.70422  -15.94775    3.00839
       O   -10.73713  -15.74280    3.00153
      H1   -10.61877  -15.10232    3.78756
       H   -11.44597  -14.00101    5.96437
       O   -10.61296  -13.88815    5.60242
      H1    -9.99350  -14.39866    6.10739
       H    -7.04323  -17.19162    2.52156
       O    -6.41909  -16.56742    2.18223
      H1    -6.75049  -16.11789    1.39422
       H    -5.52037  -11.68781    0.92076
       O    -5.93558  -11.40426    1.72796
      H1    -5.77594  -12.13234    2.39042
       H   -10.25060  -11.65599    6.46066
       O   -10.18350  -10.73577    6.60018
      H1    -9.42275  -10.49193    6.01596
       H    -8.65744  -10.27107    4.23577
       O    -8.25058   -9.63215    4.85058
      H1    -8.86171   -8.92134    5.03193
       H    -9.48549  -13.59056   -2.94520
       O    -9.32060  -13.17394   -2.06831
      H1   -10.17813  -13.17688   -1.52256
       H    -6.26111  -12.97495   -6.21770
       O    -7.03893  -13.43598   -5.84689
      H1    -7.06494  -13.46302   -4.87299
       H    -4.92004  -13.96211   -0.59426
       O    -4.61885  -13.51549   -1.37134
      H1    -3.69594  -13.67564   -1.33787
       H    -5.62329  -17.89198   -2.83449
       O    -5.38115  -17.85944   -3.79462
      H1    -6.15769  -17.49432   -4.20722
       H    -2.93056  -15.24257    4.72008
       O    -3.30396  -14.35493    4.73730
      H1    -4.16311  -14.46140    4.36226
       H    -6.27314  -13.22870    4.33980
       O    -5.91143  -13.53762    3.47178
      H1    -6.56313  -14.12585    3.14371
       H    -8.64172   -8.01392   -1.28489
       O    -8.09494   -7.42228   -0.70140
      H1    -7.21507   -7.60412   -1.01240
       H    -8.88988  -12.35468   -5.51289
       O    -9.25189  -11.80184   -4.81527
      H1    -8.49381  -11.63607   -4.27129
       H    -9.69498  -16.87771    6.35969
       O    -8.95715  -16.29667    6.21174
      H1    -8.54860  -16.72060    5.44785
       H    -8.69308   -6.41231    5.50782
       O    -9.55400   -6.89771    5.51104
      H1    -9.71308   -7.21924    4.57457
       H   -14.22605  -10.51146    3.34988
       O   -13.57251  -11.09349    2.83804
      H1   -12.73198  -10.99799    3.27531
       H    -1.48845  -10.53628    2.99347
       O    -2.06066  -10.88022    2.24687
      H1    -2.56586  -10.11078    1.98353
       H   -13.37640  -10.39933   -0.75635
       O   -12.46529  -10.12164   -0.43437
      H1   -12.46001  -10.26843    0.47480
       H    -1.92791  -15.85681   -0.43891
       O    -2.22648  -16.11789    0.47863
      H1    -2.12375  -15.33216    1.02956
       H    -7.44866  -13.68820   -2.44683
       O    -6.89120  -14.04159   -3.10375
      H1    -6.03382  -14.10528   -2.71299
       H    -9.64142   -9.68541   -2.85756
       O    -9.77290   -8.75439   -2.63402
      H1    -9.42167   -8.21411   -3.38824
       H    -3.38016  -17.04107    1.57454
       O    -3.95427  -17.39672    2.29847
      H1    -4.86596  -17.01463    2.27812
       H    -8.36778  -11.63167   -2.19891
       O    -7.81789  -10.97238   -2.66281
      H1    -7.07901  -10.86190   -2.08273
       H    -4.33309  -10.33414   -1.36988
       O    -4.86009  -10.84759   -0.73585
      H1    -4.71056  -11.75731   -1.04272
       H   -14.61646  -13.11702    2.95249
       O   -15.34120  -13.32569    3.56973
      H1   -15.13368  -12.80918    4.36155
       H    -7.06297  -15.36290   -0.67650
       O    -6.77575  -14.89034    0.12162
      H1    -7.46926  -14.25217    0.23567
       H    -4.21186   -8.53092    1.70328
       O    -3.34406   -8.14096    1.64851
      H1    -3.05629   -8.38329    0.75968
       H    -7.77603  -12.27474    0.98333
       O    -8.41518  -13.00070    1.04387
      H1    -9.11651  -12.80611    0.42337
       H   -10.80194  -12.27423   -3.85186
       O   -11.77160  -12.13140   -3.91480
      H1   -11.80203  -11.33885   -4.43620
       H   -13.72083  -12.77462    0.19941
       O   -13.45436  -13.24659    0.98438
      H1   -13.71119  -14.21591    0.93990
       H   -12.57799  -15.03208   -5.54530
       O   -11.83352  -15.73843   -5.48862
      H1   -11.16427  -15.40112   -4.85837
       H    -2.27435  -13.27495    1.98328
       O    -1.78922  -13.96838    2.42929
      H1    -2.15182  -13.91273    3.34846
       H    -7.97205  -17.17638   -2.41714
       O    -7.29831  -16.50833   -2.09148
      H1    -7.35366  -15.77950   -2.75195
       H    -7.60285  -15.46104    7.08549
       O    -7.08880  -14.81667    7.59961
      H1    -6.15920  -15.07442    7.63365
       H    -5.74935   -9.71788    2.32985
       O    -5.92576   -8.77388    2.48648
      H1    -5.67670   -8.62661    3.42169
       H   -12.39769  -17.27688   -2.10537
       O   -12.07197  -16.59666   -2.73602
      H1   -12.46193  -16.83458   -3.60961
       H   -14.05125  -17.28653    2.52739
       O   -13.41054  -17.22451    3.24885
      H1   -13.86274  -16.59376    3.81254
       H   -12.87105   -7.64838   -2.41489
       O   -12.81663   -7.41596   -1.46117
      H1   -12.81100   -8.32234   -1.07749
       H   -12.93884  -13.33269   -2.79222
       O   -13.45946  -13.96491   -2.32518
      H1   -12.96206  -14.77776   -2.41053
       H   -12.80932  -18.27564   -0.07679
       O   -13.43205  -18.22589   -0.79879
      H1   -13.96240  -17.42827   -0.72505
       H    -3.42413   -9.28925   -2.66139
       O    -3.24067  -10.13130   -3.04080
      H1    -2.44513  -10.43883   -2.59349

