177
frame 4 | Written by MDAnalysis XYZWriter (release 2.4.3)
       H   -19.36456    0.50327   -4.63987
       O   -18.68007    0.86028   -5.26031
      H1   -17.82152    0.79002   -4.76911
       H   -13.68319    1.19450   -7.24831
       O   -12.95771    1.01958   -6.62752
      H1   -12.15934    1.05727   -7.21816
       H   -16.87150   -5.28290   -2.82425
       O   -17.62044   -5.71148   -2.42543
      H1   -18.41013   -5.21284   -2.75315
       H   -13.08986    0.91589    3.72894
       O   -13.84550    1.17109    3.16311
      H1   -14.54458    1.55782    3.75956
       H    -7.76367    2.16893   -4.53596
       O    -7.11306    2.54780   -3.96508
      H1    -6.95665    1.97278   -3.18803
       H   -15.54395   -7.35311   -1.98031
       O   -14.94501   -7.21454   -1.23760
      H1   -14.16810   -6.84943   -1.66307
       H    -9.60977    4.21933   -5.59765
       O    -9.28992    5.06452   -5.94769
      H1    -9.66617    5.75188   -5.33778
       H   -12.82478    3.47650   -1.59593
       O   -12.63541    3.81010   -2.48965
      H1   -12.62432    4.76621   -2.34593
       H   -16.92615   -4.98774   -6.58722
       O   -17.12184   -5.24768   -5.68237
      H1   -17.34082   -4.36073   -5.28729
       H    -9.58013   -2.73787    2.31516
       O    -8.72360   -2.33574    2.42783
      H1    -8.78816   -1.74862    3.19359
       H   -18.02500   -4.36959   -1.07161
       O   -18.57578   -4.14359   -0.32682
      H1   -18.88930   -3.24702   -0.61995
       H    -9.01916    0.83519   -6.11445
       O    -8.89824    1.73787   -5.72160
      H1    -9.71758    1.95492   -5.23521
       H   -14.52538   -4.95430   -3.56494
       O   -15.41198   -4.68320   -3.59388
      H1   -15.62320   -4.97464   -4.54015
       H   -13.34013   -3.66357   -0.47276
       O   -12.40169   -3.54179   -0.62242
      H1   -11.95947   -3.47549    0.21162
       H    -9.03714   -5.98146   -4.93445
       O    -9.00903   -5.83378   -4.01217
      H1    -9.81930   -5.28529   -3.82362
       H    -7.83149   -4.13079   -4.23246
       O    -7.43135   -3.38693   -4.69750
      H1    -7.00176   -3.86656   -5.42261
       H   -14.96605   -2.75451   -4.37440
       O   -14.96365   -2.17891   -5.11398
      H1   -14.04320   -2.26096   -5.40608
       H   -11.61274    0.40051    1.99531
       O   -11.24032    0.99547    1.30406
      H1   -10.45262    0.65491    0.92060
       H   -13.85958   -0.58884    2.79172
       O   -13.82251   -1.41053    2.27947
      H1   -14.30028   -2.12066    2.70810
       H   -11.71003   -1.19909    3.97363
       O   -11.49235   -0.27020    3.99521
      H1   -10.53865   -0.22564    4.25578
       H   -16.13939   -1.28863   -0.02641
       O   -16.76140   -1.09256    0.64261
      H1   -16.26730   -1.21887    1.44789
       H    -7.83036   -6.81356   -0.47833
       O    -8.15214   -5.87700   -0.30281
      H1    -7.42530   -5.52667    0.27016
       H   -15.66110    3.23575   -3.83325
       O   -15.85099    2.78367   -3.04474
      H1   -14.98027    2.83433   -2.60332
       H   -18.30333   -2.68957   -5.65319
       O   -17.95814   -2.83968   -4.75202
      H1   -17.08423   -2.45145   -4.72249
       H   -14.42106   -4.49342    2.71635
       O   -15.15818   -4.06371    2.31909
      H1   -15.08442   -4.19694    1.36883
       H   -15.79253    3.46839   -7.14379
       O   -15.05163    3.11719   -7.60761
      H1   -14.35001    3.70426   -7.31371
       H   -12.26780   -1.32647   -4.37922
       O   -12.19455   -1.41719   -5.35202
      H1   -12.55984   -0.63732   -5.70883
       H    -8.49762    2.59223    2.65449
       O    -8.23719    1.68185    2.65813
      H1    -7.32925    1.71672    2.26232
       H   -15.19960    3.95423    2.82595
       O   -16.02298    3.78656    2.35877
      H1   -15.97662    3.04057    1.71745
       H    -4.58672   -0.85266   -0.03493
       O    -5.15075   -0.93978    0.82313
      H1    -6.04021   -1.18587    0.51815
       H    -6.55094   -0.17393   -2.28337
       O    -6.83499    0.73391   -2.04998
      H1    -7.68027    0.68979   -1.55710
       H   -10.65306    0.90679   -1.80583
       O   -11.48501    1.14554   -2.26046
      H1   -11.23571    1.57817   -3.11896
       H   -18.55730    4.92126   -2.10670
       O   -18.27262    4.37384   -1.33043
      H1   -17.48699    3.91718   -1.62846
       H   -11.56494   -4.26694   -3.55591
       O   -11.12828   -4.47874   -2.72655
      H1   -11.69818   -4.07484   -1.99922
       H   -16.12158    1.16424   -9.56242
       O   -15.87119    0.76020   -8.74883
      H1   -15.74942    1.48579   -8.13350
       H    -8.54322   -0.81691   -6.83116
       O    -9.53422   -0.75820   -6.86234
      H1    -9.96284   -1.50413   -6.37723
       H   -10.06352    4.05775    1.36918
       O   -10.86006    3.82313    0.83437
      H1   -11.05968    2.89319    1.01757
       H   -11.17444   -4.12378    2.28661
       O   -11.31369   -3.28187    1.85185
      H1   -12.00759   -2.85018    2.32797
       H   -11.92394   -2.21566   -8.60319
       O   -11.79513   -3.09876   -8.17956
      H1   -12.00043   -2.94938   -7.25674
       H   -11.02004   -6.19615    0.98315
       O   -10.23299   -5.92713    1.50075
      H1    -9.43092   -6.14453    0.93558
       H    -5.53212   -1.16144   -3.71798
       O    -5.86616   -1.55875   -2.90121
      H1    -6.45614   -2.30622   -3.17228
       H    -7.91093   -2.11064   -0.49555
       O    -7.78628   -1.41463    0.15161
      H1    -8.13668   -1.87166    0.91500
       H    -6.70670    4.93351   -2.34317
       O    -7.58793    4.95442   -2.75336
      H1    -7.61271    4.09647   -3.23139
       H   -19.28591   -1.02129   -1.21005
       O   -19.13031   -1.59124   -0.47745
      H1   -18.29128   -1.34170   -0.06718
       H    -8.95431   -3.35490   -6.10117
       O    -9.79047   -3.67460   -6.46501
      H1   -10.07315   -3.33679   -7.35751
       H   -12.82318    1.51878   -1.13813
       O   -13.33635    1.70950   -0.30688
      H1   -12.67399    1.46744    0.34881
       H   -11.80859    2.51213   -5.46024
       O   -11.21263    2.63504   -4.70239
      H1   -11.80693    3.03540   -3.98979
       H   -14.69222   -1.50533   -2.30378
       O   -15.52781   -1.49101   -1.84398
      H1   -16.00157   -0.91032   -2.41288
       H   -13.29298   -6.55715   -3.78885
       O   -12.99944   -6.30197   -2.91930
      H1   -12.35167   -5.65390   -2.95262
       H   -12.27754   -0.38479   -2.24508
       O   -12.84570   -1.23342   -2.31569
      H1   -12.59973   -1.75304   -1.50930
       H    -9.85226   -3.57641   -1.74211
       O    -9.02543   -3.35442   -1.43020
      H1    -8.68003   -4.22203   -1.22092
       H   -16.33376    0.77125    0.72917
       O   -16.15475    1.69754    0.57055
      H1   -15.32176    1.81381    0.15808
       H   -15.87962    1.17882   -3.70751
       O   -16.29610    0.28373   -3.92911
      H1   -15.72331   -0.13526   -4.57176
       H   -11.56992    0.73356   -9.04485
       O   -10.77012    1.17766   -8.64023
      H1   -10.18907    0.50233   -8.27058
       H   -10.99308    5.71031    0.84779
       O   -10.93589    6.62977    1.05983
      H1    -9.96804    6.74135    1.25702
       H    -9.47810    3.84947   -0.32960
       O    -8.57692    3.54579   -0.67660
      H1    -8.33618    4.13233   -1.45951
       H   -12.41212   -5.46160   -5.77383
       O   -12.03402   -4.57516   -5.48187
      H1   -11.13093   -4.56685   -5.96983
       H   -15.31922   -4.75040   -1.54057
       O   -15.28987   -4.05758   -0.86831
      H1   -15.52218   -3.28663   -1.44864
       H    -8.80117   -0.20274   -0.15469
       O    -9.15535    0.62536   -0.49350
      H1    -8.68627    1.28854    0.01230

