177
frame 11 | Written by MDAnalysis XYZWriter (release 2.4.3)
       H   -14.34478  -13.40602   -1.30173
       O   -14.47498  -14.34962   -1.55142
      H1   -15.44027  -14.38137   -1.47947
       H   -17.68495  -13.39645   -9.89478
       O   -17.13428  -14.07455  -10.35466
      H1   -16.46311  -14.43229   -9.79417
       H   -16.77486   -7.21153   -2.02046
       O   -16.16364   -6.71595   -1.43527
      H1   -15.30724   -7.20343   -1.53015
       H   -16.31752   -5.35305   -5.06729
       O   -16.80637   -6.08718   -5.43039
      H1   -17.71792   -5.84749   -5.24492
       H    -8.59519  -12.01001  -10.56473
       O    -8.44383  -11.47007  -11.32329
      H1    -7.51055  -11.18381  -11.15857
       H   -10.83307  -10.07514  -12.46013
       O   -11.45177  -10.27282  -13.14297
      H1   -10.99770  -10.29210  -14.02498
       H   -10.77974  -13.95889  -11.04743
       O   -10.72548  -14.48117  -10.23781
      H1   -10.55673  -15.41078  -10.54571
       H   -11.68150   -9.18264   -6.32607
       O   -12.33334   -9.12341   -5.57656
      H1   -12.74454   -8.20556   -5.62879
       H    -9.26447  -13.72667   -9.44286
       O    -8.72802  -13.08443   -9.01476
      H1    -9.18488  -12.84615   -8.18651
       H    -9.10150   -6.99768   -4.56484
       O    -8.46381   -6.25020   -4.56535
      H1    -8.49064   -5.88022   -5.43354
       H   -17.84088  -16.13043   -7.12362
       O   -16.94507  -15.86474   -6.98223
      H1   -16.55143  -16.62759   -6.54246
       H    -8.83083  -16.75323   -7.96668
       O    -8.02666  -16.72488   -8.49846
      H1    -8.12461  -16.22344   -9.38449
       H   -17.37789  -14.21578   -3.62696
       O   -17.88865  -13.63206   -3.09813
      H1   -18.24237  -14.22449   -2.44990
       H   -10.96845  -12.68948    0.32921
       O   -11.47815  -13.01201    1.12100
      H1   -10.67823  -13.09972    1.66072
       H   -10.14552  -12.65049   -1.64251
       O    -9.74865  -11.88846   -1.15661
      H1   -10.27140  -11.12176   -1.44216
       H   -14.99446  -12.94648  -12.76292
       O   -15.53079  -12.39551  -13.26409
      H1   -15.14211  -12.42386  -14.17036
       H   -13.74752   -7.79218   -8.32819
       O   -14.62455   -7.43246   -7.99495
      H1   -14.79151   -6.48544   -8.31660
       H   -15.97454  -18.71647   -5.25188
       O   -15.48406  -18.36513   -6.07407
      H1   -14.73423  -17.80328   -5.73294
       H   -13.71648   -6.97277   -6.59149
       O   -13.03724   -6.65896   -5.93202
      H1   -13.57140   -6.07601   -5.33990
       H   -15.04161  -11.09018  -10.64120
       O   -15.80066  -10.65937  -11.12727
      H1   -15.68399  -11.04632  -11.99751
       H    -9.36746  -10.03830  -11.29358
       O    -9.79868   -9.22071  -11.04358
      H1    -9.34527   -8.43950  -11.44441
       H   -13.93187  -10.01855   -2.85682
       O   -13.07046  -10.36667   -3.15888
      H1   -12.99197  -10.16061   -4.09083
       H    -7.51675   -8.73608   -8.31509
       O    -7.51085   -9.40635   -7.57984
      H1    -7.05198   -8.94786   -6.86712
       H   -11.65451   -6.22679   -7.09090
       O   -11.04888   -5.77582   -7.65688
      H1   -11.43529   -5.88467   -8.52749
       H   -10.16386  -11.48103   -6.99498
       O    -9.66916  -12.27673   -6.78117
      H1   -10.39141  -12.98147   -6.86793
       H    -8.92735  -16.42728   -4.84754
       O    -8.79652  -15.45234   -4.79990
      H1    -9.39312  -15.10593   -4.15688
       H   -10.78851   -9.04041   -8.09664
       O   -10.23874   -9.46560   -7.45435
      H1    -9.35129   -9.48374   -7.75149
       H   -16.21671   -9.15078   -2.45026
       O   -15.49357   -9.59861   -2.00296
      H1   -15.86284  -10.50251   -1.79571
       H   -17.53151   -8.24792   -8.27999
       O   -18.05821   -8.00900   -7.52157
      H1   -17.52347   -7.37376   -7.05283
       H    -7.21638   -7.48868   -4.71465
       O    -6.58848   -8.17279   -4.97849
      H1    -7.15763   -8.95955   -4.82675
       H    -8.69713  -11.71242   -4.85053
       O    -8.25773  -10.98660   -4.38290
      H1    -7.72298  -11.36203   -3.65896
       H   -18.00571  -11.84488   -8.31924
       O   -18.71628  -12.24766   -8.74089
      H1   -19.21824  -12.57648   -7.96036
       H   -16.79760  -12.56726   -2.09718
       O   -16.09479  -12.27016   -1.48170
      H1   -16.50312  -12.08379   -0.64466
       H   -10.95163  -12.21246  -12.75663
       O   -10.66461  -13.14488  -12.69313
      H1   -10.82373  -13.52022  -13.58079
       H   -12.38478  -11.84474   -4.44215
       O   -12.11511  -12.60870   -4.98346
      H1   -12.95147  -13.16008   -4.76018
       H    -9.51481   -9.51145   -4.09867
       O    -9.94842   -8.65547   -4.13693
      H1   -10.81693   -8.76951   -4.56311
       H    -7.93576  -12.24260   -2.15592
       O    -6.95865  -12.19919   -2.34521
      H1    -6.62383  -13.08594   -2.63310
       H   -15.61567   -8.02643   -9.29484
       O   -16.25437   -7.98155   -9.99449
      H1   -16.11321   -8.82033  -10.52696
       H   -16.52762  -14.00775   -6.57712
       O   -16.15247  -13.22832   -6.20468
      H1   -16.88421  -12.57625   -6.16049
       H   -14.84797  -13.55994   -4.62828
       O   -14.19685  -14.10500   -4.16366
      H1   -14.38777  -13.96419   -3.26095
       H   -12.89845   -8.23968   -1.88841
       O   -13.43899   -7.51215   -1.50481
      H1   -12.98917   -6.70333   -1.63710
       H   -11.56431  -14.37414   -8.44355
       O   -11.55504  -14.42812   -7.47159
      H1   -11.09919  -15.30813   -7.19799
       H   -17.46496   -9.74081   -7.06140
       O   -17.04915  -10.60152   -6.86887
      H1   -16.09376  -10.43793   -6.86310
       H   -18.51412   -7.91132   -3.15445
       O   -17.54579   -8.02309   -3.23122
      H1   -17.28151   -7.62502   -4.12736
       H   -11.27359  -17.82101   -7.69936
       O   -10.66598  -17.19715   -7.36762
      H1   -10.25433  -17.65130   -6.63706
       H   -12.00622   -7.90746   -9.36901
       O   -12.51046   -8.64377   -8.93309
      H1   -12.46881   -9.37758   -9.54709
       H   -13.23269  -18.34875   -3.11485
       O   -12.39192  -18.29951   -3.60258
      H1   -12.51176  -17.73345   -4.32802
       H   -13.25036  -12.36858   -9.88532
       O   -13.47511  -11.40271   -9.78868
      H1   -13.64143  -11.34136   -8.83363
       H    -7.39440  -14.60240   -5.68029
       O    -6.71545  -13.99692   -6.08509
      H1    -7.08898  -13.44439   -6.76499
       H   -15.56398  -15.76469   -8.20351
       O   -15.17417  -15.70211   -9.07628
      H1   -15.33544  -16.54478   -9.50603
       H   -12.10460  -16.24255   -1.00219
       O   -11.56785  -15.96248   -1.76850
      H1   -11.94612  -16.58346   -2.39946
       H   -15.53949  -15.45861   -4.10302
       O   -16.42445  -15.95008   -3.98889
      H1   -16.11637  -16.65053   -3.42178
       H    -6.87600  -11.03566   -7.98805
       O    -6.39218  -11.83200   -8.20286
      H1    -7.08229  -12.40214   -8.51301
       H   -10.63228   -8.98504   -2.25806
       O   -11.14463   -9.37307   -1.55322
      H1   -11.82447   -9.93032   -2.03385
       H   -12.85793  -14.53086  -11.09512
       O   -13.72589  -14.02817  -11.03671
      H1   -14.22156  -14.58586  -10.44589
       H   -14.29828  -12.37516   -7.18158
       O   -13.70282  -11.59031   -7.09939
      H1   -13.03630  -11.86454   -6.42060
       H   -11.00938  -13.58227   -3.61163
       O   -10.33954  -13.79707   -2.91980
      H1   -10.69085  -14.62798   -2.47874
       H   -13.44080  -15.74549   -5.14112
       O   -13.09239  -16.54803   -5.59658
      H1   -12.81565  -16.25358   -6.51237
       H   -14.85854   -7.43600  -10.86732
       O   -14.34788   -6.88248  -11.46994
      H1   -14.19300   -7.44646  -12.24303

