177
frame 2 | Written by MDAnalysis XYZWriter (release 2.4.3)
       H    -5.58477   10.01715  -13.55861
       O    -5.53416   10.65988  -12.88387
      H1    -6.24669   10.53914  -12.27731
       H    -4.86443   13.38831  -11.06236
       O    -5.44261   13.27378  -11.81515
      H1    -5.29638   12.37209  -12.12922
       H    -5.91793   14.02785  -15.31567
       O    -5.33893   13.93044  -16.04717
      H1    -5.15575   14.87334  -16.30560
       H     1.02245   13.45609   -7.13828
       O     1.84795   13.04758   -6.94913
      H1     2.48035   13.77314   -6.67255
       H    -5.82173   10.05231   -7.59236
       O    -6.30980    9.57613   -6.91802
      H1    -6.89358    9.01138   -7.41069
       H     2.16368   14.34023  -10.72571
       O     2.51421   14.76928   -9.93805
      H1     1.77068   15.02089   -9.40555
       H    -0.97703    4.61070   -8.11133
       O    -0.44475    5.36313   -7.84656
      H1    -0.27755    5.97339   -8.64178
       H     3.34828   12.51558  -11.35132
       O     3.71293   11.97182  -10.60962
      H1     2.90596   11.96836  -10.07329
       H     0.48627   15.24777  -13.01816
       O    -0.33957   15.61906  -13.23071
      H1    -0.23018   15.69941  -14.18221
       H    -2.53101    7.41947   -6.84464
       O    -2.74735    8.34104   -6.77568
      H1    -3.48064    8.56512   -7.36749
       H    -0.42002    5.59976  -13.82831
       O    -0.76660    4.75820  -14.14902
      H1    -1.09856    4.22568  -13.42415
       H    -4.23168    6.77227  -11.26434
       O    -4.79357    6.06117  -11.64589
      H1    -4.89501    6.15697  -12.59410
       H    -6.01058    6.59688  -17.57363
       O    -6.09256    7.52982  -17.68061
      H1    -5.69678    7.93274  -16.90823
       H    -1.17351   12.24147  -13.81531
       O    -0.83457   12.78606  -13.10777
      H1    -1.32274   13.63566  -13.22984
       H    -6.33248    4.93629  -15.24465
       O    -5.81142    5.62775  -14.84931
      H1    -4.86120    5.45334  -15.00767
       H    -0.86238    6.97323  -17.45711
       O    -0.98522    7.08774  -16.51689
      H1    -1.42373    7.93021  -16.31383
       H     0.63340    9.16511  -18.76140
       O     0.10435    9.71472  -19.33702
      H1     0.60468    9.89925  -20.12619
       H     0.53447    7.45857   -9.90019
       O     0.09284    6.59661  -10.06192
      H1     0.82900    5.99978  -10.30765
       H     0.39436   10.67190  -15.73715
       O    -0.42766   10.39531  -15.24640
      H1    -1.12604   10.37734  -15.88562
       H     4.15972    8.54000  -12.29387
       O     4.97540    8.12580  -11.89366
      H1     5.58932    8.83077  -11.61389
       H    -7.29362   13.74448  -11.37985
       O    -7.99069   13.80473  -10.65162
      H1    -8.91628   14.03419  -10.97682
       H     0.13256   16.46822   -8.08919
       O     0.55751   16.65563   -8.91904
      H1     1.10100   17.45817   -8.81744
       H    -3.88977    9.68264   -9.31456
       O    -4.23160   10.40566   -8.83472
      H1    -3.52184   11.09435   -8.68404
       H     2.46794   12.36411  -17.69917
       O     3.33260   12.75200  -17.41100
      H1     3.12673   13.66756  -17.03945
       H    -7.23199    6.86632  -13.96140
       O    -7.98691    7.55547  -13.93160
      H1    -8.38085    7.43183  -13.05955
       H     2.53938    4.77813   -9.96223
       O     2.08830    4.71314  -10.81687
      H1     2.67100    5.16043  -11.42612
       H    -1.08225   12.70257   -6.16449
       O    -1.10301   13.18181   -7.00083
      H1    -1.91242   12.89822   -7.51086
       H    -4.57741    8.54768  -14.75053
       O    -4.96742    9.09946  -15.44784
      H1    -5.86443    8.73725  -15.49213
       H     0.11011   11.75103  -10.27367
       O    -0.75503   11.86155  -10.66194
      H1    -0.52991   12.31013  -11.49470
       H     0.32178    6.38446  -12.13480
       O     0.55004    6.87693  -12.86914
      H1     1.41053    6.50738  -13.16526
       H    -1.99467   12.51771  -17.65279
       O    -1.58924   12.86174  -16.84205
      H1    -2.03225   13.75569  -16.70117
       H     1.62272   10.72514   -9.13640
       O     1.55362   11.65744   -9.22068
      H1     1.61570   12.09310   -8.35655
       H     0.67154    7.97086  -16.64084
       O     1.46857    8.18105  -17.14349
      H1     1.97462    8.77106  -16.59269
       H     3.82537    9.76863  -15.97502
       O     3.01192   10.04498  -15.59445
      H1     3.10814    9.77271  -14.64968
       H    -2.36853    7.39003  -10.34336
       O    -3.03446    8.13460  -10.35111
      H1    -2.53209    8.85104  -10.72104
       H     3.62048   12.04025  -14.79928
       O     3.69298   12.75415  -14.10999
      H1     4.36969   12.41670  -13.51240
       H    -3.15896    3.17649  -10.96007
       O    -2.81803    3.86714  -11.59773
      H1    -3.47729    4.62648  -11.52047
       H    -0.20159   10.24841   -5.56529
       O    -0.17146    9.42736   -6.08512
      H1    -1.02546    9.18913   -6.39834
       H    -2.40413    6.04110  -16.08294
       O    -2.97322    5.37577  -15.63802
      H1    -2.35398    4.93191  -15.00922
       H    -3.20310   15.70467  -16.10662
       O    -2.41564   15.53369  -15.60096
      H1    -2.69984   15.42350  -14.67045
       H    -6.99213   12.50863  -13.85525
       O    -7.48929   13.33311  -14.01725
      H1    -7.06661   14.04839  -13.58068
       H     4.40235    7.69986  -10.18551
       O     3.99625    7.70421   -9.30640
      H1     3.72316    6.80282   -9.22162
       H    -1.61393    9.04498  -19.28891
       O    -2.49487    9.31182  -18.92493
      H1    -3.04448    8.65935  -19.38522
       H    -1.19053   16.28534   -5.93468
       O    -0.47268   15.75558   -6.40397
      H1    -0.89484   14.87057   -6.61621
       H     2.39884   13.31863  -12.97349
       O     1.68161   13.62650  -12.36897
      H1     0.82441   13.37572  -12.68251
       H     6.58406   11.04675  -13.92722
       O     5.71671   10.84955  -13.48517
      H1     5.93965   10.75553  -12.48931
       H    -2.39386    7.86860  -13.29923
       O    -3.08593    7.36722  -13.69485
      H1    -2.78790    6.61229  -14.19784
       H    -3.77440   15.26403   -7.71862
       O    -3.97963   15.13263   -8.66718
      H1    -3.33398   15.73283   -9.13342
       H    -2.00789   16.00205  -12.75565
       O    -2.95211   15.94488  -13.00933
      H1    -3.55568   15.92860  -12.24383
       H    -0.98903    9.86340  -13.43877
       O    -1.46218    9.69015  -12.53073
      H1    -1.25567   10.49417  -12.08634
       H    -0.15284   12.30379  -17.57690
       O     0.67985   12.14133  -18.05264
      H1     0.36625   11.49936  -18.70534
       H     2.43811    9.83387  -11.68415
       O     2.44769    9.37359  -12.54000
      H1     1.81073    8.69810  -12.44490
       H     1.41026    8.61731   -8.46127
       O     1.48034    8.99009   -9.33305
      H1     2.37948    8.71166   -9.53370
       H    -2.02770   12.87327   -9.41113
       O    -2.80514   12.67674   -8.89803
      H1    -3.27773   13.49081   -8.80445
       H    -4.95566   16.01687  -10.66902
       O    -5.02718   16.71128  -11.34205
      H1    -5.13241   17.46215  -10.75252
       H    -8.27844   12.03685  -11.13476
       O    -7.99039   11.16685  -11.43527
      H1    -8.19146   10.58691  -10.65978
       H     2.79127    4.43539  -13.74840
       O     3.04522    5.39377  -13.63121
      H1     3.80762    5.51117  -14.23222
       H    -1.18138   16.48472   -9.81504
       O    -2.09420   16.63852   -9.91251
      H1    -2.24567   17.57177   -9.64003
       H    -2.37637    9.32579  -17.16196
       O    -2.56923    9.36627  -16.21223
      H1    -3.49012    9.52926  -16.11695

