177
frame 12 | Written by MDAnalysis XYZWriter (release 2.4.3)
       H    19.34632    5.48285   -6.29025
       O    19.76922    4.62724   -6.10658
      H1    19.33542    4.07820   -6.76790
       H    16.11437    8.37002   -5.33717
       O    16.05898    8.59662   -6.25280
      H1    15.20350    8.98449   -6.29388
       H    20.13369   12.67013   -5.63506
       O    19.77767   13.45698   -5.30178
      H1    19.03314   13.71183   -5.90094
       H    13.17567    9.93991  -12.18172
       O    13.04395   10.89156  -12.40550
      H1    13.97042   11.26174  -12.61015
       H    13.10755   12.00770  -15.52559
       O    13.16538   12.88536  -15.13191
      H1    14.10520   13.09173  -15.18969
       H    17.52275   15.75702  -16.08097
       O    17.30138   16.05802  -15.17697
      H1    16.94468   15.25978  -14.76140
       H    18.16811   17.05872   -7.44258
       O    17.83772   17.36268   -6.60906
      H1    18.57640   17.45974   -5.98758
       H    15.29323   11.63640   -3.76462
       O    14.89776   12.32982   -4.25383
      H1    13.94954   12.23731   -4.09872
       H    14.19958   13.55662   -9.81111
       O    14.60435   14.28091  -10.30596
      H1    13.94189   15.01659  -10.36558
       H    15.16014   12.84125  -11.48210
       O    15.28224   12.41076  -12.31819
      H1    16.07198   11.85748  -12.23433
       H    14.16568    7.27537   -7.69241
       O    13.60642    7.69082   -8.37862
      H1    13.13868    8.40943   -7.87747
       H    16.43502   16.71492  -10.24087
       O    15.97999   16.42880   -9.43149
      H1    15.56973   15.59464   -9.69773
       H    16.02397   17.19608  -14.43329
       O    15.76200   17.96847  -13.93684
      H1    14.81368   17.97261  -14.12990
       H    18.38295   10.31782   -3.94630
       O    17.92844   10.60483   -3.14414
      H1    18.59260   10.74216   -2.41435
       H    15.11716    4.95134   -5.98064
       O    14.70560    4.45068   -5.23784
      H1    14.01993    5.02817   -4.83162
       H    14.45717    8.07904  -16.28407
       O    15.25398    8.51484  -16.39666
      H1    15.87076    7.83836  -16.09566
       H    13.08923    4.05777  -10.24008
       O    13.89281    4.53150   -9.83996
      H1    14.46271    4.70948  -10.55970
       H    19.08409    9.88977   -9.23000
       O    18.48131    9.26857   -9.64553
      H1    17.58490    9.41912   -9.32375
       H    17.98864    6.86546   -4.86031
       O    17.37254    6.65079   -4.15343
      H1    17.25991    5.67292   -4.12480
       H    10.60127   13.99749   -8.75047
       O    10.40259   13.50929   -9.61408
      H1    10.67350   12.55068   -9.45813
       H    13.40469   11.57475   -9.54412
       O    14.26245   11.68660   -9.22896
      H1    14.09904   12.03637   -8.35167
       H    17.92418   17.63419  -11.45488
       O    17.00330   18.00656  -11.37407
      H1    16.63831   17.83151  -12.25012
       H    16.96932   11.17317  -15.08042
       O    17.59703   11.82853  -15.40296
      H1    17.70927   11.64667  -16.35752
       H    12.95447    6.93727  -14.87018
       O    13.18454    6.70172  -15.77469
      H1    13.49307    5.78394  -15.74430
       H    14.14686    7.53434  -12.66570
       O    13.32367    7.01931  -12.88319
      H1    12.61701    7.38777  -12.35255
       H    17.50732   11.54313   -6.82968
       O    17.89812   10.65409   -6.70583
      H1    17.16103    9.98920   -6.71874
       H    15.36570    9.65678  -15.28962
       O    15.26733   10.31139  -14.60561
      H1    14.34075   10.45124  -14.57832
       H    17.10036    9.81797  -18.53475
       O    17.77550   10.31810  -18.06294
      H1    18.42581   10.46401  -18.78287
       H    11.57275   10.39528   -8.75473
       O    11.62656   10.95601   -9.52672
      H1    11.57007   10.39827  -10.32187
       H    16.65480   13.11490  -14.92093
       O    16.04373   13.74139  -14.59426
      H1    15.69468   13.32456  -13.75889
       H    13.74668   13.75751   -6.61002
       O    13.31810   12.94075   -6.85666
      H1    12.40325   13.22154   -6.81055
       H    15.06937   15.28692  -15.72095
       O    14.30235   15.68969  -16.08869
      H1    14.47172   15.92196  -17.01471
       H    17.91804   10.44410  -11.19081
       O    17.86108   11.28879  -11.63123
      H1    18.71470   11.25329  -12.15784
       H    19.85918    1.87965   -8.36323
       O    19.87368    2.84082   -8.57515
      H1    19.11672    2.94620   -9.21173
       H    17.75037    6.00340  -12.08553
       O    18.68591    5.85365  -11.82828
      H1    18.99645    5.21060  -12.48419
       H    10.97184    9.09123   -6.51228
       O    11.53225    9.17004   -7.27729
      H1    11.11228    8.59949   -7.90402
       H    15.43694    9.01638  -11.20421
       O    15.30857    8.65025  -12.11369
      H1    15.46706    9.37566  -12.76500
       H    12.01469   13.28539  -12.67984
       O    11.23791   13.75845  -12.35684
      H1    11.29071   13.85717  -11.38919
       H    16.62980    4.80493  -14.92174
       O    16.73130    4.05323  -14.35266
      H1    16.56070    3.26929  -14.88577
       H    18.42849   12.49686  -10.30068
       O    18.91838   12.98421   -9.57215
      H1    18.79356   13.85944   -9.93784
       H    10.44693    8.84344  -12.24385
       O    11.22960    8.70683  -11.74001
      H1    10.97913    8.31575  -10.89712
       H    18.05371    4.24096  -11.06587
       O    18.33993    3.37275  -10.79033
      H1    17.59768    2.83854  -11.07266
       H    15.18472    8.65709   -8.89951
       O    15.68114    9.41009   -9.17004
      H1    15.11263   10.18960   -9.03780
       H    15.79370   15.36870   -5.92999
       O    15.42495   14.82444   -6.67231
      H1    15.48171   15.37173   -7.46496
       H    17.33534    7.39479   -6.84292
       O    18.25508    7.01206   -6.73022
      H1    18.56513    6.98279   -7.62927
       H    13.66777   11.30066   -6.01201
       O    13.65801   10.32434   -5.77846
      H1    12.85289    9.95414   -6.15308
       H    15.62186   12.38325  -17.23751
       O    15.02624   12.29354  -18.05216
      H1    15.61898   12.57534  -18.76765
       H    20.42851   16.11853  -14.17574
       O    19.68957   15.70827  -13.68390
      H1    18.89497   15.70086  -14.25023
       H    19.66607    7.72547  -17.01330
       O    18.98310    8.10477  -16.48879
      H1    18.78586    8.89834  -17.00960
       H    16.04414    4.97140   -7.71981
       O    15.40058    5.74514   -7.60636
      H1    14.71831    5.49368   -8.25852
       H    12.55479   16.85253  -11.02660
       O    13.07624   16.42339  -10.27339
      H1    13.62335   17.16718   -9.93518
       H    15.68236    8.08425  -17.99482
       O    15.79825    7.78929  -18.88846
      H1    15.22936    7.01927  -18.93234
       H    11.51451   10.42960  -15.72550
       O    12.31551   10.49391  -16.28527
      H1    11.95334   10.31157  -17.19394
       H    17.72294    5.99998  -16.34352
       O    16.79789    6.05479  -16.29664
      H1    16.42900    5.67802  -17.10456
       H    12.40796    6.49654   -8.24187
       O    11.83519    5.71579   -8.26065
      H1    12.21219    5.06503   -8.90102
       H    15.01133    5.89645  -12.33511
       O    15.55594    5.19905  -12.07182
      H1    15.69358    4.60676  -12.78268
       H    18.64594    4.01425  -13.90254
       O    19.55758    4.33965  -13.78196
      H1    19.95489    3.60996  -13.17751
       H    16.99444   15.18544  -18.51201
       O    17.33028   14.74634  -17.71722
      H1    18.24702   15.01352  -17.70259
       H    16.81492   13.94005   -7.08420
       O    17.68257   13.46791   -7.26179
      H1    17.78071   13.33465   -8.23876

