177
frame 6 | Written by MDAnalysis XYZWriter (release 2.4.3)
       H    17.36090  -13.26182   -5.85357
       O    16.97363  -13.67990   -6.64015
      H1    16.98872  -12.92944   -7.25974
       H    18.14842   -9.12060   -8.02794
       O    18.01194  -10.03606   -7.69115
      H1    17.60686   -9.88426   -6.83703
       H    11.89861  -10.47294  -11.18067
       O    11.57090   -9.54685  -11.17592
      H1    11.92667   -8.99201  -11.89843
       H    11.94741   -8.47660   -9.77476
       O    12.23374   -7.96749   -9.01357
      H1    13.20089   -8.16221   -8.99806
       H    17.10922   -5.65032   -4.75231
       O    17.95444   -5.72769   -4.36026
      H1    17.88399   -5.63639   -3.42409
       H    13.49196   -3.24720   -2.93928
       O    13.96633   -3.34113   -2.10385
      H1    14.08442   -4.31096   -1.94061
       H    13.19352   -2.08606  -10.56217
       O    12.81141   -1.27987  -10.25429
      H1    11.96533   -1.22675  -10.76062
       H    12.22622    0.18734   -7.66917
       O    12.19842   -0.73966   -7.66798
      H1    12.27184   -0.92018   -8.62150
       H    16.49749   -5.64778  -12.04942
       O    15.59249   -5.85884  -12.22811
      H1    15.32431   -6.68168  -11.75463
       H    14.86630   -5.70819  -14.15837
       O    14.40820   -5.84471  -14.99895
      H1    13.67022   -6.39889  -14.80040
       H    19.01545   -6.22545   -1.45307
       O    18.15715   -5.88320   -1.68808
      H1    18.14434   -4.99827   -1.21454
       H    15.02659   -1.53033   -2.61231
       O    15.64918   -0.75882   -2.41649
      H1    15.26161   -0.31791   -1.64409
       H    13.56730  -11.74903   -7.87965
       O    14.19166  -11.01785   -7.76822
      H1    15.04626  -11.35091   -8.19401
       H    10.28607   -3.04322  -10.32528
       O    10.61595   -3.77665  -10.91566
      H1    10.96779   -3.32084  -11.75578
       H    14.71025   -2.55960  -14.71843
       O    14.42782   -2.92816  -15.56369
      H1    14.27608   -3.85295  -15.45329
       H    11.22319   -1.16476  -13.28496
       O    11.40080   -2.05027  -12.95642
      H1    12.31304   -2.19024  -12.92046
       H    18.22003   -1.20609  -12.44260
       O    18.63371   -1.60948  -13.20920
      H1    19.55845   -1.63385  -13.02452
       H     9.37215   -6.29109   -5.17859
       O    10.02848   -6.95058   -5.20277
      H1    10.04941   -7.19358   -6.11471
       H    15.17167   -3.62108  -11.17221
       O    14.47943   -3.41383  -10.49346
      H1    14.34441   -4.19261   -9.95639
       H    18.45172   -9.06176  -12.86588
       O    18.80459   -8.78562  -13.69265
      H1    18.22167   -8.09357  -13.97207
       H    12.67454   -9.63664   -4.12545
       O    13.19574   -8.89750   -3.72555
      H1    13.96786   -9.35427   -3.28337
       H    14.63192   -9.32974   -8.34563
       O    14.84317   -8.36747   -8.49911
      H1    14.62525   -8.01960   -7.63742
       H    15.76202   -4.29745   -5.13370
       O    15.32533   -5.14652   -5.13042
      H1    15.31819   -5.30630   -4.19058
       H    17.69092   -3.19081  -11.99438
       O    17.95100   -3.97555  -11.50380
      H1    17.51969   -3.93087  -10.65093
       H    14.15854   -8.00780   -5.03046
       O    14.71016   -7.85340   -5.82325
      H1    14.80276   -6.88341   -5.83960
       H    16.78355   -2.19165   -8.63015
       O    16.20052   -1.46377   -8.92211
      H1    15.56795   -1.93118   -9.42116
       H     8.97508   -6.93691   -9.22429
       O     8.28727   -6.71735   -9.89085
      H1     8.59478   -5.87566  -10.33623
       H    17.16767   -2.01752   -4.54729
       O    16.61836   -2.57321   -5.19727
      H1    15.94535   -1.89154   -5.56485
       H    15.61507   -0.00077  -11.63854
       O    14.76351    0.35590  -11.99439
      H1    14.64140    1.23819  -11.73414
       H    13.30375   -6.03030   -8.88337
       O    13.94109   -5.36872   -8.78335
      H1    13.36921   -4.63269   -8.35143
       H     9.77543   -1.21936   -9.06108
       O     9.93776   -1.25214  -10.01655
      H1     9.06651   -0.97768  -10.35942
       H    15.09075   -9.60131  -14.96057
       O    14.58124   -9.66850  -14.15173
      H1    13.79098  -10.18377  -14.41139
       H    12.39494   -4.03147   -6.45892
       O    12.24659   -3.62302   -7.36127
      H1    12.35835   -2.66673   -7.10646
       H    19.44995   -8.25709   -3.56992
       O    19.37090   -7.96602   -4.56514
      H1    18.85943   -7.15742   -4.61008
       H    15.10845   -9.09552  -11.51026
       O    14.66025   -8.28238  -11.17624
      H1    14.77617   -8.31267  -10.19562
       H    12.40197   -7.05000  -12.73089
       O    12.35247   -7.89770  -13.26298
      H1    13.27028   -8.28339  -13.18067
       H    19.79244   -0.56964   -4.48039
       O    19.49816   -0.00784   -3.75224
      H1    18.61348    0.30177   -3.87194
       H    16.51533    0.61712   -5.44283
       O    16.86288    0.92129   -4.62459
      H1    16.23161    0.69407   -3.93699
       H    13.95984   -7.06117   -2.79736
       O    14.26773   -6.18124   -2.84923
      H1    13.52203   -5.76246   -3.27615
       H    18.83805   -7.24705   -9.48731
       O    18.15377   -7.91732   -9.46659
      H1    18.46869   -8.67946  -10.00376
       H    12.67153   -0.97557   -4.59310
       O    12.84044   -1.92192   -4.53247
      H1    12.18692   -2.42835   -5.06399
       H    19.04264  -10.58785  -11.46304
       O    18.29194  -10.02932  -11.17554
      H1    17.48673  -10.38438  -11.62465
       H    19.30358  -11.31097   -8.23680
       O    19.88572  -12.00215   -8.52364
      H1    19.90736  -12.78150   -7.96151
       H    13.42913   -5.55834  -11.50675
       O    12.64695   -5.63055  -11.95391
      H1    11.93334   -5.36784  -11.40783
       H    17.00183  -11.04778   -8.90908
       O    16.48182  -11.79489   -9.20561
      H1    16.31108  -11.69003  -10.10968
       H    19.03274   -3.38372  -14.57343
       O    19.26142   -4.29719  -14.52351
      H1    19.09014   -4.49460  -13.60174
       H    17.25341   -6.75990  -16.21728
       O    16.66891   -7.36639  -15.70508
      H1    15.94234   -6.82197  -15.33827
       H    14.26149    2.11664   -8.41226
       O    14.93874    2.35350   -7.81931
      H1    15.18834    1.43271   -7.50569
       H    15.31532   -0.78993   -7.64165
       O    15.16475   -0.39206   -6.77112
      H1    14.21068   -0.57817   -6.59175
       H    16.14687   -8.66729   -5.23147
       O    16.96227   -9.09530   -4.86467
      H1    17.68209   -8.45498   -5.02864
       H    17.23867    0.57413  -11.04419
       O    17.22573   -0.30606  -11.37089
      H1    16.70473   -0.75637  -10.67386
       H    16.21550   -2.40881  -13.71339
       O    15.53534   -2.33895  -12.99765
      H1    15.39132   -1.34133  -12.97864
       H    12.83954    2.17150  -10.50504
       O    13.23454    1.48607   -9.93372
      H1    13.47955    0.75640  -10.48269
       H    10.70092   -7.98343   -8.27839
       O     9.78712   -7.73363   -7.91639
      H1     9.36869   -8.59738   -7.86227
       H    11.56438   -4.53542   -4.02815
       O    12.00660   -4.72500   -4.85028
      H1    11.58835   -5.47750   -5.20803
       H     9.04054   -4.12237  -11.25787
       O     8.12225   -4.50395  -11.38876
      H1     7.61401   -3.97463  -10.76434
       H    17.74779   -2.73691   -6.79179
       O    18.02396   -3.14522   -7.61955
      H1    18.11712   -4.13599   -7.40441
       H    16.98948   -6.38999   -9.04133
       O    16.76553   -5.44852   -8.88239
      H1    15.79378   -5.47154   -8.90282
       H    16.43328  -11.64395  -12.50213
       O    15.87511  -10.97346  -12.07979
      H1    15.53154  -10.41791  -12.81064

