177
frame 6 | Written by MDAnalysis XYZWriter (release 2.4.3)
       H     9.97183    5.42114  -11.80642
       O    10.48682    5.30238  -11.03784
      H1     9.84066    4.92529  -10.38772
       H     5.23953   -2.28898   -3.16075
       O     5.28825   -2.86798   -4.00389
      H1     5.37084   -3.85805   -3.82475
       H     2.42661    4.20333  -10.61986
       O     2.90517    3.44704  -10.20740
      H1     3.35659    3.76759   -9.47027
       H    12.68297    5.88243   -7.83283
       O    12.02622    5.40954   -7.20623
      H1    12.50077    5.54629   -6.35088
       H    13.19352   -2.08606  -10.56217
       O    12.81141   -1.27987  -10.25429
      H1    11.96533   -1.22675  -10.76062
       H    12.22622    0.18734   -7.66917
       O    12.19842   -0.73966   -7.66798
      H1    12.27184   -0.92018   -8.62150
       H     3.79944    5.76317   -5.32755
       O     3.36344    6.59778   -5.35716
      H1     3.15162    6.70134   -6.29641
       H    14.46958    3.03447   -6.12564
       O    14.59241    3.12532   -5.14385
      H1    14.05222    3.92620   -4.98439
       H    12.97862    3.34724  -12.96494
       O    12.78906    3.40708  -12.06403
      H1    11.86530    3.64742  -12.00272
       H     4.96264   -3.50425  -10.23366
       O     4.16322   -4.09261  -10.28406
      H1     3.43613   -3.72930   -9.72574
       H     9.46890    2.08597   -7.09091
       O     8.64036    1.61543   -7.17106
      H1     8.24768    1.86133   -8.09151
       H     4.58915    4.46554   -3.38968
       O     4.41543    4.18258   -4.28801
      H1     3.59010    3.67595   -4.22584
       H     5.81202    0.16820   -1.98485
       O     5.12048   -0.36981   -2.30401
      H1     4.41474   -0.32790   -1.62785
       H     5.35239    4.08572   -7.43985
       O     4.47729    3.88216   -7.75836
      H1     4.06247    3.12362   -7.33344
       H     1.66839    2.40439   -9.57771
       O     0.93031    1.75278   -9.49137
      H1     0.65372    1.59207  -10.45791
       H     4.34860    0.13487   -9.89309
       O     4.92187    0.56162  -10.49988
      H1     4.39019    0.67662  -11.31389
       H     5.01138    3.09719  -14.33156
       O     4.90259    2.12513  -14.22116
      H1     5.32246    1.51972  -14.84450
       H     8.78782    3.90434  -14.46641
       O     8.24991    4.51287  -13.94727
      H1     8.47369    5.33640  -14.30758
       H    10.28607   -3.04322  -10.32528
       O    10.61595   -3.77665  -10.91566
      H1    10.96779   -3.32084  -11.75578
       H     9.83503    2.10015  -16.41558
       O     9.76745    2.55170  -15.52122
      H1     9.40983    1.84767  -14.93184
       H    11.22319   -1.16476  -13.28496
       O    11.40080   -2.05027  -12.95642
      H1    12.31304   -2.19024  -12.92046
       H     4.62114    5.46098  -12.95010
       O     4.72595    4.57021  -12.52304
      H1     3.85412    4.47326  -12.07733
       H     7.20108    5.83487   -9.58577
       O     7.57966    5.13150  -10.17524
      H1     6.88717    4.78498  -10.74223
       H     7.13118   -2.58829   -9.10843
       O     6.71636   -2.93678   -9.92470
      H1     6.66350   -2.12697  -10.50166
       H    10.70590    1.61129   -1.94423
       O    10.15628    2.38935   -1.90261
      H1     9.44843    2.13255   -2.46506
       H     6.78303   -1.86873   -4.86712
       O     7.66799   -2.11157   -5.29556
      H1     8.40833   -1.77921   -4.72713
       H     8.39635    1.73686  -11.50427
       O     8.88138    2.05385  -12.23614
      H1     8.57035    2.94337  -12.44969
       H     4.19484    2.01071   -4.13428
       O     4.39932    1.12224   -4.51455
      H1     4.61592    0.62274   -3.70560
       H    13.55179    1.28786   -5.11449
       O    12.76054    0.76302   -4.83391
      H1    12.61843    0.98839   -3.94438
       H     6.73292    3.85218   -6.01634
       O     6.88617    4.57646   -6.60764
      H1     7.81204    4.56601   -6.86504
       H     3.71544    1.61817  -13.04811
       O     3.02732    1.14091  -12.47637
      H1     2.76104    1.76548  -11.76763
       H     9.40676    8.00786   -7.58849
       O     8.89391    8.66767   -8.07668
      H1     8.08727    8.10627   -8.10320
       H     6.61114    1.22598  -10.00477
       O     7.31572    1.70778   -9.56746
      H1     6.91259    2.51977   -9.25626
       H     9.40387    5.64811   -6.22315
       O     9.28185    5.57786   -7.18502
      H1    10.19534    5.56834   -7.42552
       H     6.34615    6.27071   -7.58654
       O     6.42461    6.78357   -8.37513
      H1     5.80554    7.56088   -8.30158
       H     7.41110    1.57359   -2.77333
       O     7.18533    1.53213   -1.81594
      H1     6.92325    2.46585   -1.54895
       H    11.61524    6.79086  -10.43229
       O    12.01689    7.65854  -10.56471
      H1    12.75032    7.63206   -9.96789
       H     3.69104    1.33307   -6.12835
       O     3.04578    1.53219   -6.86319
      H1     2.14816    1.59717   -6.47105
       H     8.95462   -1.21443  -14.62038
       O     8.42383   -0.41298  -14.42647
      H1     8.36170   -0.50865  -13.45370
       H     9.77543   -1.21936   -9.06108
       O     9.93776   -1.25214  -10.01655
      H1     9.06651   -0.97768  -10.35942
       H     8.32284   -0.22847   -7.64555
       O     8.28863   -1.19760   -7.77854
      H1     7.96702   -1.55086   -6.92102
       H    12.39494   -4.03147   -6.45892
       O    12.24659   -3.62302   -7.36127
      H1    12.35835   -2.66673   -7.10646
       H    11.75712    1.90168   -5.79980
       O    11.37010    2.37188   -6.58301
      H1    11.81649    3.22739   -6.75200
       H    12.67153   -0.97557   -4.59310
       O    12.84044   -1.92192   -4.53247
      H1    12.18692   -2.42835   -5.06399
       H     4.59379   -4.02426   -6.67366
       O     4.92499   -3.13577   -6.85330
      H1     5.33032   -2.87737   -6.00793
       H    14.26149    2.11664   -8.41226
       O    14.93874    2.35350   -7.81931
      H1    15.18834    1.43271   -7.50569
       H    15.31532   -0.78993   -7.64165
       O    15.16475   -0.39206   -6.77112
      H1    14.21068   -0.57817   -6.59175
       H     6.94810    6.79403  -11.95382
       O     6.57613    7.55932  -12.42490
      H1     6.00917    7.99314  -11.74912
       H    11.94396    1.33086  -13.57263
       O    11.22936    0.69044  -13.43111
      H1    10.56776    1.19243  -12.96288
       H    12.83954    2.17150  -10.50504
       O    13.23454    1.48607   -9.93372
      H1    13.47955    0.75640  -10.48269
       H    10.30775   -0.62068   -3.66039
       O     9.37329   -0.62885   -3.40577
      H1     9.37397   -1.00716   -2.54459
       H     6.04217   -0.56401  -11.49688
       O     6.91043   -0.97552  -11.73860
      H1     6.79695   -1.23961  -12.65283
       H     7.88239    2.07177   -5.24337
       O     7.81262    2.51448   -4.39449
      H1     8.40210    3.22318   -4.39464
       H     9.04054   -4.12237  -11.25787
       O     8.12225   -4.50395  -11.38876
      H1     7.61401   -3.97463  -10.76434
       H     3.59620    5.66683   -8.22303
       O     3.04877    6.48872   -8.20013
      H1     2.12573    6.27891   -8.37022
       H     7.42622   -5.14879   -6.52152
       O     7.65196   -5.24610   -5.61758
      H1     8.05563   -4.40356   -5.38809
       H     3.77853   -1.48742   -7.68293
       O     3.44047   -0.75072   -8.22157
      H1     3.38931    0.01315   -7.64512
       H     9.52694    7.48607   -5.05409
       O    10.11439    8.17093   -5.40454
      H1    10.03089    8.97778   -4.96060
       H     8.99925    5.59995   -3.17370
       O     8.80775    5.93725   -4.07337
      H1     7.92877    6.35181   -4.02219

