177
frame 9 | Written by MDAnalysis XYZWriter (release 2.4.3)
       H    -4.44426    3.55205   -2.85600
       O    -4.54079    2.70667   -3.38585
      H1    -5.45644    2.77151   -3.59788
       H    -4.78171   -7.39202   -1.71905
       O    -5.12223   -8.30383   -1.84874
      H1    -4.75956   -8.68021   -1.01211
       H    -4.66907   -2.41065   -6.28206
       O    -4.26943   -1.79703   -6.82948
      H1    -4.72993   -1.94208   -7.66453
       H    -7.28366    5.26162   -3.74545
       O    -7.40903    5.22579   -2.75694
      H1    -7.58703    4.29883   -2.59581
       H    -6.67485   -4.29993    5.84976
       O    -7.57006   -3.90023    5.71530
      H1    -7.41151   -3.07405    5.25683
       H    -9.61234   -2.27103    2.08423
       O    -8.73077   -1.93231    2.27885
      H1    -8.83270   -0.98554    2.57188
       H    -2.47205   -4.87884   -4.05464
       O    -2.40768   -5.39153   -4.85559
      H1    -2.10617   -4.74751   -5.55362
       H    -4.25275   -2.98694   -2.04405
       O    -3.71529   -3.54289   -2.60933
      H1    -3.05382   -2.92749   -3.06238
       H    -6.84282   -0.54847    6.80603
       O    -6.40062   -0.06340    6.12605
      H1    -5.56355    0.21898    6.60809
       H    -9.78001   -7.51010    2.08418
       O   -10.02639   -8.39437    2.41987
      H1   -10.46259   -8.93638    1.74197
       H   -13.48143   -2.72565   -0.89192
       O   -12.50708   -2.53052   -0.87899
      H1   -12.26505   -2.37935    0.06810
       H    -5.83998    4.46451    1.19097
       O    -6.09999    4.38270    0.27254
      H1    -6.76489    3.69874    0.33143
       H    -9.00122   -6.29539   -3.54407
       O    -8.23188   -5.77841   -3.53386
      H1    -8.10757   -5.47032   -4.45184
       H   -11.89819   -5.13494    3.25461
       O   -12.37286   -4.83168    4.03994
      H1   -11.86974   -5.11205    4.85682
       H   -11.24003    0.48878    3.24469
       O   -10.86930    1.00570    2.51744
      H1   -10.59721    0.34688    1.86735
       H    -2.32926    2.21486    4.64850
       O    -2.89625    2.71789    4.02689
      H1    -3.56960    2.11808    3.62136
       H   -13.60991    0.45675    1.23780
       O   -13.64638   -0.37305    1.66065
      H1   -14.55691   -0.62745    1.61704
       H    -8.97348   -5.39260   -6.19044
       O    -8.11062   -4.99525   -5.98555
      H1    -7.47283   -5.20010   -6.70219
       H   -12.09556   -0.50478    5.02914
       O   -11.18321   -0.56865    4.71920
      H1   -10.67048   -0.14296    5.45903
       H    -5.15203   -6.92504    3.96151
       O    -4.26605   -6.49231    3.77118
      H1    -4.45146   -5.99374    2.96762
       H    -8.38946   -7.09335    0.41480
       O    -8.66537   -6.50915    1.11782
      H1    -7.90108   -6.25150    1.71398
       H    -4.29328    1.11760    1.59020
       O    -4.44818    0.50915    2.26433
      H1    -5.11561   -0.08752    1.91973
       H    -6.51924   -0.84366    4.19321
       O    -6.58353   -1.76457    3.93840
      H1    -7.25447   -1.81366    3.21752
       H   -13.46531   -0.13812   -3.16330
       O   -14.38073   -0.14141   -3.39287
      H1   -14.59090    0.79888   -3.41244
       H    -2.46486    0.27929   -2.21035
       O    -1.53273    0.11129   -2.35818
      H1    -1.01640    0.91263   -2.21721
       H    -4.61549   -1.31369   -0.70919
       O    -4.78450   -2.12432   -0.24046
      H1    -5.76418   -2.09876   -0.13979
       H    -8.71690    2.15161   -2.87416
       O    -7.77226    2.42520   -2.74481
      H1    -7.23314    1.73362   -3.21364
       H   -10.30926    1.47562   -1.61599
       O   -10.30755    1.70122   -2.54190
      H1   -10.99123    2.42802   -2.55300
       H   -12.27754   -4.37366   -4.27315
       O   -12.92719   -4.44638   -3.52569
      H1   -12.37210   -4.31256   -2.73663
       H    -7.00260   -6.80327   -4.29918
       O    -6.68419   -7.56264   -4.78280
      H1    -7.25852   -8.25920   -4.55946
       H    -8.14503   -7.74683   -1.50567
       O    -7.51687   -8.27821   -1.01309
      H1    -6.70607   -8.27261   -1.50361
       H    -3.83383   -5.42779   -1.09201
       O    -4.76208   -5.69132   -0.93765
      H1    -5.33815   -4.97408   -1.28378
       H   -10.31242    0.00522   -4.20296
       O    -9.52042   -0.09075   -4.81453
      H1    -9.46994   -1.06417   -4.97984
       H    -7.61003    1.38568    3.37041
       O    -8.21387    0.66499    3.01105
      H1    -9.12223    1.04915    3.06519
       H   -10.97118    3.64884    0.68166
       O   -10.70830    3.39177   -0.21179
      H1   -10.78321    4.16798   -0.74784
       H   -11.20284   -3.50515    2.02209
       O   -11.20763   -2.61851    1.64984
      H1   -11.95835   -2.11368    1.91835
       H   -11.86324   -6.29251    1.27637
       O   -11.39303   -5.50492    1.63846
      H1   -10.48109   -5.68643    1.39352
       H    -6.50810   -0.40299   -3.69521
       O    -6.15781    0.47462   -3.85881
      H1    -5.59785    0.49860   -4.67498
       H    -7.60013   -2.79384   -0.53628
       O    -7.48391   -1.79227   -0.37841
      H1    -7.99356   -1.72929    0.41492
       H    -3.08492   -1.98004    6.03445
       O    -3.83961   -2.30720    5.46543
      H1    -4.47754   -1.59474    5.30850
       H    -6.51646   -5.19140    2.81115
       O    -7.32991   -5.41503    3.21649
      H1    -7.40458   -4.84511    3.97060
       H    -8.62905   -3.31446   -6.32347
       O    -9.23345   -2.57215   -6.26964
      H1    -9.04039   -2.04221   -7.01048
       H   -12.31307    0.73341   -0.49912
       O   -12.80324    1.55137   -0.35792
      H1   -12.20121    2.27797   -0.45989
       H    -1.44511   -4.54429   -0.39157
       O    -2.13491   -5.06681   -0.91829
      H1    -2.56807   -4.36186   -1.45685
       H   -10.63874    3.85921    2.89337
       O   -11.47363    3.70208    2.43702
      H1   -11.53289    2.73847    2.46811
       H   -11.11873    0.17484   -2.48709
       O   -11.66083   -0.56556   -2.87377
      H1   -11.84104   -1.09981   -2.09491
       H    -1.87364   -2.51195    2.08839
       O    -1.03090   -2.19629    1.71379
      H1    -0.71736   -3.03596    1.32893
       H    -1.29684   -0.39004    2.11208
       O    -1.48721    0.55535    2.36439
      H1    -2.45838    0.44725    2.41811
       H    -4.28416    2.96734   -0.38172
       O    -3.74502    2.24931    0.01531
      H1    -2.85920    2.64517    0.06590
       H    -7.72902   -4.85425   -1.92414
       O    -7.42719   -4.55317   -1.06223
      H1    -7.84641   -5.07384   -0.38350
       H    -5.46047   -9.31451    1.87085
       O    -6.30703   -8.88596    2.09155
      H1    -6.47642   -8.33032    1.35681
       H    -4.13130   -2.45664    3.16295
       O    -3.78635   -2.81875    2.41643
      H1    -4.31999   -2.49509    1.68285
       H    -8.37239    0.89916   -6.01164
       O    -7.95723    1.25392   -6.79271
      H1    -7.02548    1.29832   -6.60533
       H    -4.85999    0.50490   -2.48218
       O    -4.24200    0.17258   -1.79713
      H1    -3.87243    0.90405   -1.35307
       H    -9.07368    2.71525   -0.19287
       O    -8.20428    2.26193   -0.21771
      H1    -7.90399    2.35583   -1.15836
       H   -11.67577   -4.97972   -6.43034
       O   -11.60958   -4.16968   -5.87761
      H1   -10.68169   -3.85410   -5.93143
       H   -10.00680   -0.87598   -0.67608
       O   -10.10870   -0.08832   -0.11999
      H1    -9.26905    0.41647   -0.15527
       H    -5.64976   -4.44858   -5.38377
       O    -5.43999   -3.66974   -4.86634
      H1    -4.76142   -3.97891   -4.25851
       H    -4.73023   -5.28044    0.65607
       O    -4.87537   -5.17682    1.63570
      H1    -4.36556   -4.35786    1.91837

