177
frame 5 | Written by MDAnalysis XYZWriter (release 2.4.3)
       H   -12.07295   10.56611    3.74006
       O   -12.59676   11.36163    3.60217
      H1   -13.03589   11.28629    2.72906
       H    -6.46791    4.37914   11.03887
       O    -5.97868    4.85739   11.78088
      H1    -5.48213    4.16175   12.18589
       H    -9.07608    9.43397    7.68514
       O    -8.17642    9.41770    7.89754
      H1    -7.96708    8.54299    8.27349
       H   -13.82210   10.33023    7.15487
       O   -13.26253   10.11956    7.94643
      H1   -13.85722    9.67363    8.59963
       H   -10.22919    8.07076    9.59077
       O   -10.67234    7.49200    8.93680
      H1   -11.64794    7.61879    9.07853
       H    -9.02635    3.59866    6.51941
       O    -8.31353    3.51947    5.80253
      H1    -7.85921    2.75792    6.12314
       H    -9.89567    6.78588    5.09488
       O    -9.40428    7.00943    4.29242
      H1    -8.55568    7.29817    4.70822
       H    -5.57128   13.02261    8.65026
       O    -5.36633   13.83656    9.14454
      H1    -6.24102   14.24169    9.32433
       H   -10.16202    4.27388    7.58548
       O   -10.01822    3.57334    8.25853
      H1    -9.10946    3.66075    8.58116
       H    -6.47962    4.75683    1.29692
       O    -6.85298    4.36926    0.51014
      H1    -7.42711    3.64785    0.83529
       H    -1.87595    4.54799    9.15712
       O    -2.66650    4.02092    9.00649
      H1    -3.41484    4.60947    8.80822
       H    -7.36484    9.40621   10.34021
       O    -7.30356   10.19904   10.83409
      H1    -7.34441    9.92551   11.73022
       H    -4.42035    7.10112    0.86107
       O    -4.36297    6.13710    1.01769
      H1    -3.57244    5.94932    1.51045
       H   -11.36475   10.15581    7.53942
       O   -10.59218    9.94942    6.94110
      H1   -10.89938   10.01402    6.01411
       H    -3.72671    1.31779    5.04754
       O    -4.62340    1.54714    4.75706
      H1    -5.21620    0.81109    4.76787
       H    -6.96201    8.22644    1.59907
       O    -7.48898    8.28611    0.84908
      H1    -6.93635    8.37024    0.12419
       H    -8.81611   13.03335    2.62740
       O    -8.54255   12.05549    2.68946
      H1    -8.67828   11.56268    1.86080
       H    -8.65266    3.80168   11.24565
       O    -8.90310    3.05286   11.84264
      H1    -9.63420    2.69099   11.32154
       H    -3.86408    6.60727    9.95184
       O    -4.05743    6.79591    9.06000
      H1    -4.18325    7.78315    8.99311
       H    -8.92444    5.91719   12.55116
       O    -9.34429    6.49323   11.92204
      H1    -9.94146    5.80737   11.55545
       H    -4.07641   10.23845    1.81902
       O    -3.81085   10.96101    2.38625
      H1    -4.63228   11.41535    2.63278
       H    -6.85644    8.61032    4.03725
       O    -6.07299    8.47243    3.54402
      H1    -5.34004    8.53365    4.14614
       H   -10.59358    6.31732    7.43035
       O   -10.64367    5.80970    6.61005
      H1   -11.64605    5.77902    6.47560
       H    -7.05349    3.07304    3.55743
       O    -7.23627    2.53948    2.75203
      H1    -6.36082    2.44963    2.27318
       H    -7.59578    5.29117    9.40612
       O    -7.50867    4.33468    9.45921
      H1    -6.87075    4.05344    8.83654
       H   -13.02934    4.78925    3.29447
       O   -13.55818    5.01398    2.54728
      H1   -12.98435    5.08490    1.82335
       H    -1.61700    4.78968    2.81214
       O    -2.36304    5.37739    3.08421
      H1    -2.97663    4.80408    3.51527
       H   -11.00874    1.83862    7.76709
       O   -11.22439    1.08554    7.17706
      H1   -12.02190    0.74146    7.56415
       H    -2.23710    6.66158    7.71216
       O    -2.04267    6.59087    6.76480
      H1    -1.18466    6.18040    6.79027
       H    -7.66792    6.80879    6.44460
       O    -7.34156    7.59957    6.02055
      H1    -7.76354    8.34340    6.53351
       H    -5.74372   12.83369    3.79942
       O    -5.94667   12.76742    2.85505
      H1    -6.87180   12.51939    2.81199
       H    -4.86860    5.84199    7.46968
       O    -5.45763    5.15380    7.19004
      H1    -5.00907    4.76759    6.44018
       H    -1.59343    8.98378    3.57371
       O    -1.55370    9.45754    2.69490
      H1    -2.33868   10.02218    2.71534
       H   -11.01426    3.95782    9.73833
       O   -11.25742    4.46869   10.54249
      H1   -11.97237    3.97834   10.92004
       H    -7.57558    0.54506    4.89126
       O    -7.58272    0.31338    3.93943
      H1    -7.50137    1.15719    3.49986
       H   -11.28758   12.45148    4.14321
       O   -10.68984   13.09448    4.51053
      H1   -10.04953   12.82762    5.19967
       H   -10.71358    4.73660    2.25671
       O   -10.92621    4.68577    1.28414
      H1   -11.19659    3.74742    1.27701
       H    -4.21304    9.75822    9.06709
       O    -4.86484    9.22335    8.51480
      H1    -4.62870    9.12292    7.56130
       H    -6.58661    0.78462    7.44341
       O    -6.67216    1.06998    6.51675
      H1    -5.74822    1.25507    6.23556
       H    -9.86262   10.43189    3.14748
       O   -10.32400    9.78362    3.66146
      H1   -10.14608    8.90821    3.31551
       H    -7.46001    6.08066   14.15922
       O    -7.78772    5.27373   13.76262
      H1    -7.15006    5.10395   13.04474
       H   -13.67925    4.43884    5.29851
       O   -13.34818    5.35699    5.47032
      H1   -13.77629    5.69895    6.28935
       H    -1.73143    3.37528    7.64410
       O    -1.04094    3.09378    7.08915
      H1    -0.88796    3.94476    6.56718
       H    -7.95725    6.94919   10.61715
       O    -7.50774    7.00909    9.77154
      H1    -6.63971    7.24427   10.00661
       H   -12.45690   10.54663    9.55655
       O   -11.86741   10.54210   10.30921
      H1   -12.36772   10.33869   11.10848
       H    -2.50513   11.02000    6.15000
       O    -3.04362   11.24023    5.40008
      H1    -3.75962   11.90389    5.58933
       H    -9.75021    4.99759    3.90450
       O   -10.24276    4.16532    3.86989
      H1    -9.63476    3.50939    4.18208
       H    -5.45111   12.58710   10.30292
       O    -5.23759   11.82318   10.78739
      H1    -5.93358   11.15850   10.68379
       H    -9.80661   12.73660    7.76381
       O    -9.23555   12.54992    7.01081
      H1    -9.42687   11.60274    6.88055
       H    -4.92757    4.73398    4.33314
       O    -4.11854    4.32785    4.70221
      H1    -4.29136    3.36409    4.57673
       H    -8.82523   11.66788   10.73648
       O    -9.53207   11.92580   10.14722
      H1   -10.36265   11.61730   10.45852
       H    -5.65865   10.69095    8.02172
       O    -6.08157   11.53071    7.70524
      H1    -7.01344   11.51464    7.79523
       H    -5.50850    6.05364    2.42271
       O    -6.09265    5.55919    3.05538
      H1    -6.31723    6.23752    3.76588
       H    -9.98135    5.76455   -0.30224
       O    -9.61572    6.61331   -0.53957
      H1    -8.98680    6.91184    0.14190
       H    -5.73077    0.71321    9.46325
       O    -4.94716    1.27304    9.39915
      H1    -4.62346    1.34478   10.29774
       H   -13.92854    7.38914    8.67778
       O   -13.54180    6.69644    8.10825
      H1   -13.33503    5.95233    8.71734
       H    -9.66567    3.72943    0.56402
       O    -9.14155    3.05813    0.03513
      H1    -8.72084    3.51874   -0.75870
       H    -3.12283    8.00634    5.96059
       O    -3.82915    8.55165    5.58322
      H1    -3.42797    9.43698    5.56839
       H    -4.89291   13.70963    5.69033
       O    -5.29008   12.84010    5.44815
      H1    -5.53320   12.38316    6.27348

