177
frame 3 | Written by MDAnalysis XYZWriter (release 2.4.3)
       H   -10.81781  -15.92720   -8.06777
       O   -10.39077  -16.36362   -8.81147
      H1    -9.98129  -17.15248   -8.51041
       H   -10.40389  -18.73211   -6.44997
       O   -10.25658  -18.67719   -5.46670
      H1   -11.19645  -18.59060   -5.18495
       H    -1.02419  -15.83124  -10.51186
       O    -1.99074  -15.93717  -10.56541
      H1    -2.38826  -15.04103  -10.61764
       H   -10.59166  -15.93970   -3.40681
       O   -10.13333  -15.29189   -4.02853
      H1    -9.50935  -15.91651   -4.46403
       H     3.26516  -16.51481   -9.10747
       O     3.13571  -17.48904   -9.15133
      H1     3.85041  -17.83433   -9.72931
       H     1.71197  -12.19315   -6.18593
       O     1.07836  -12.62506   -6.77631
      H1     0.36182  -13.04549   -6.21651
       H     2.87385  -20.09318   -2.89722
       O     3.24316  -19.21290   -2.62860
      H1     2.87750  -19.15151   -1.73115
       H    -0.65727  -16.33865    1.17911
       O     0.30341  -16.49043    0.95150
      H1     0.74753  -15.89577    1.54568
       H    -0.65099  -17.85481   -7.60214
       O    -0.69236  -18.79829   -7.72371
      H1    -0.30319  -18.84662   -8.62495
       H     3.48965  -11.54897   -4.73222
       O     2.54471  -11.60968   -4.65121
      H1     2.44703  -12.54182   -4.43682
       H    -3.57972  -17.96728   -5.00663
       O    -2.65721  -18.13551   -5.19327
      H1    -2.42426  -17.40470   -5.80175
       H    -7.06398  -17.25897  -12.03425
       O    -7.03383  -16.29077  -11.99483
      H1    -6.70759  -16.03253  -12.82724
       H    -5.34850  -14.90262  -11.81294
       O    -4.99199  -14.05329  -12.07975
      H1    -5.77568  -13.48403  -12.08401
       H    -5.71580  -19.77106   -2.04634
       O    -5.86939  -19.19797   -1.23848
      H1    -6.71369  -18.74914   -1.36194
       H    -1.08049  -14.62360   -5.60642
       O    -0.71233  -13.83942   -5.10349
      H1    -1.49447  -13.30033   -4.93509
       H    -8.91519  -17.60144   -5.71370
       O    -8.27947  -16.86507   -5.48474
      H1    -7.78340  -16.66597   -6.33520
       H     0.70212  -14.18187   -4.02863
       O     1.38747  -13.98889   -3.37878
      H1     0.92963  -13.91966   -2.54696
       H    -5.37923  -16.13237   -7.40112
       O    -6.11380  -16.76222   -7.60910
      H1    -6.69782  -16.30143   -8.26341
       H    -1.77485  -16.85287  -12.01359
       O    -1.71088  -17.22864  -12.88457
      H1    -1.03294  -17.92640  -13.00809
       H    -2.97212  -11.42652   -3.97952
       O    -3.07378  -12.05559   -4.76670
      H1    -2.69396  -11.71906   -5.59395
       H   -10.11812  -19.17690   -9.04563
       O    -9.55290  -18.89398   -8.27514
      H1    -8.65993  -19.23527   -8.46971
       H    -5.98080  -19.26563  -10.84560
       O    -6.66174  -19.13488  -11.54821
      H1    -7.45457  -19.71470  -11.50896
       H    -4.20121  -14.00918   -7.23796
       O    -4.38269  -14.78803   -6.69908
      H1    -4.79521  -14.48540   -5.83278
       H    -5.07004  -14.92616   -1.22135
       O    -4.51735  -14.25767   -1.66401
      H1    -3.65144  -14.57262   -1.92624
       H    -3.96453  -13.58565  -10.69335
       O    -3.12004  -13.56710  -10.23726
      H1    -3.14205  -13.08558   -9.45155
       H    -6.10453  -18.16283   -5.87520
       O    -5.64684  -18.47312   -5.14041
      H1    -6.31743  -18.58666   -4.44246
       H    -0.97029  -10.88991  -10.77448
       O    -0.03563  -10.77860  -10.42809
      H1     0.31250  -11.69634  -10.45798
       H    -4.83859  -19.23920    0.07223
       O    -4.09420  -19.51314    0.67851
      H1    -4.24195  -18.99127    1.47975
       H    -1.01212  -15.12257   -1.13560
       O    -1.92036  -15.46321   -1.18690
      H1    -1.80138  -16.11698   -1.90016
       H    -2.59812  -15.53393   -6.70273
       O    -1.73564  -15.90830   -6.62983
      H1    -1.39848  -15.93856   -7.52427
       H    -3.09637  -11.40358   -7.91090
       O    -3.61441  -12.20794   -7.77195
      H1    -4.47168  -11.85253   -7.56955
       H    -0.61917  -10.81451   -7.01934
       O    -1.49958  -10.33031   -7.11088
      H1    -1.56283   -9.46969   -6.60047
       H    -2.33312  -15.96392    0.60822
       O    -2.31613  -16.07579    1.55659
      H1    -2.63643  -15.25257    1.89446
       H     1.33602  -18.39210  -10.23258
       O     0.41652  -18.19377  -10.28028
      H1    -0.08514  -18.93606  -10.68319
       H    -2.64011  -10.59291  -11.38319
       O    -2.28797  -11.51785  -11.59382
      H1    -2.65819  -12.20025  -10.98097
       H    -4.71060  -13.14408   -4.46613
       O    -5.39406  -13.74179   -4.18157
      H1    -5.01678  -13.96657   -3.33940
       H    -3.35654  -17.23035    2.10862
       O    -4.14788  -17.59950    2.51286
      H1    -4.81223  -16.98433    2.31258
       H    -7.79352  -11.66298   -3.31621
       O    -7.27477  -10.97080   -2.88015
      H1    -6.47771  -11.36042   -2.50098
       H     4.01972  -17.16471   -1.10682
       O     4.37095  -16.47691   -1.62449
      H1     5.08269  -16.77182   -2.11995
       H    -4.48723  -10.93306   -1.14188
       O    -5.14780  -11.58311   -0.83987
      H1    -4.75688  -12.41682   -1.11977
       H     0.76210  -19.12514   -6.88574
       O     1.66738  -19.38980   -6.53027
      H1     2.19951  -18.57908   -6.42581
       H     0.14310  -12.94491   -1.00724
       O     0.33205  -13.88195   -0.94154
      H1     1.28664  -13.98068   -0.63407
       H    -7.00528  -16.27199   -1.01624
       O    -6.47502  -15.66485   -0.45651
      H1    -6.95923  -14.82299   -0.33533
       H    -1.86933  -17.62410   -3.70809
       O    -1.52912  -17.58086   -2.79029
      H1    -1.86958  -18.41241   -2.35905
       H     3.62632  -15.99307   -3.26715
       O     3.34780  -15.55373   -4.03303
      H1     2.53413  -15.12599   -3.80712
       H    -7.80613  -15.58049  -10.43599
       O    -7.60119  -15.53112   -9.50242
      H1    -8.45368  -15.86685   -9.09164
       H     2.08999  -17.18030    0.22874
       O     2.87398  -17.72152    0.19039
      H1     3.48796  -17.50929    0.99393
       H     1.13240  -15.93044   -7.73056
       O     0.46525  -16.01023   -8.44440
      H1     0.78383  -16.60417   -9.08781
       H     1.37934  -13.04091  -10.41019
       O     0.49156  -13.37439  -10.42564
      H1     0.56030  -14.04937   -9.74700
       H     3.36951  -14.66812   -9.96723
       O     3.50175  -14.88906   -9.05570
      H1     4.47029  -14.88340   -8.94533
       H    -8.48051  -17.83846   -2.55319
       O    -7.67905  -17.29902   -2.65141
      H1    -7.85897  -16.82076   -3.50794
       H     2.87219  -15.48405   -7.28765
       O     2.58684  -16.07105   -6.59426
      H1     3.04386  -15.82935   -5.72958
       H    -6.84529  -11.11569   -6.96691
       O    -6.39325  -11.92109   -7.32330
      H1    -6.63793  -11.97511   -8.29842
       H    -3.59015  -16.95515  -10.09873
       O    -4.30938  -17.54824   -9.90037
      H1    -4.97546  -17.06036   -9.37492
       H    -7.35214  -13.46264   -9.88708
       O    -7.10676  -12.51355   -9.93477
      H1    -7.90789  -12.07281   -9.65819
       H     4.39090  -18.60149   -7.52861
       O     5.08098  -18.97029   -6.92929
      H1     5.50956  -18.19139   -6.57044
       H    -0.97983  -10.84628   -3.28973
       O    -0.54590  -10.34768   -4.02243
      H1    -1.13599   -9.70183   -4.37767
       H    -2.97385   -9.78412   -1.94743
       O    -2.70169  -10.69137   -2.28243
      H1    -1.91942  -10.87701   -1.72252
       H    -0.62688  -11.00488   -0.31084
       O    -0.38357  -11.19040   -1.24733
      H1     0.49409  -10.87099   -1.44802

