177
frame 5 | Written by MDAnalysis XYZWriter (release 2.4.3)
       H    -4.44198   -8.71411    5.65286
       O    -5.15812   -8.10700    5.50309
      H1    -5.79696   -8.19422    6.20634
       H    -2.25580   -8.27370    0.71709
       O    -3.05568   -8.65392    1.11814
      H1    -3.51173   -7.92875    1.60087
       H    -4.70531   -7.61271   -1.15268
       O    -4.97627   -8.50357   -0.82977
      H1    -4.42834   -8.47779   -0.05084
       H    -7.87585   -9.52854    2.18310
       O    -8.47201   -9.88571    1.53680
      H1    -8.34967   -9.34829    0.71382
       H    -9.14185  -18.98718    2.21022
       O    -9.29888  -19.62909    1.45696
      H1   -10.25874  -19.83358    1.58057
       H    -0.47928  -16.82021    2.33235
       O     0.50976  -16.91164    2.46264
      H1     0.83160  -15.99108    2.66755
       H    -0.11472  -12.82832    6.48935
       O    -0.11662  -11.92087    6.84759
      H1     0.77781  -11.64056    6.83682
       H     1.72934  -14.08877    2.24661
       O     2.41367  -14.46667    2.80945
      H1     2.93427  -14.87399    2.15791
       H    -5.72284  -17.52021    5.81071
       O    -4.91893  -16.91241    5.69731
      H1    -5.27079  -16.06809    5.41733
       H   -10.18530  -17.02926    2.36031
       O    -9.36723  -17.26627    2.81485
      H1    -9.62380  -17.81550    3.60455
       H    -6.99425  -12.40556    5.62497
       O    -6.74559  -12.18603    4.70393
      H1    -7.60005  -12.45399    4.20472
       H   -10.20247   -9.70339    2.61382
       O   -10.70268   -9.48762    3.43372
      H1   -10.82921  -10.40866    3.80540
       H    -2.83025  -19.29847    2.53017
       O    -2.13750  -19.91163    2.78747
      H1    -1.82758  -19.57275    3.61935
       H    -8.02510  -11.10429   10.24764
       O    -7.10069  -11.24414    9.92526
      H1    -7.15563  -11.34565    8.97612
       H    -5.78500  -18.60333   -2.17869
       O    -6.59089  -18.80786   -1.64588
      H1    -7.06925  -17.92708   -1.68673
       H     0.21314  -13.11600   -4.37242
       O     0.58789  -12.92890   -3.49462
      H1     0.04450  -13.30962   -2.76074
       H    -9.06204  -13.91142    4.13396
       O    -8.98940  -13.14828    3.56219
      H1    -8.78191  -13.44537    2.64481
       H   -10.85170  -12.42127   -0.88072
       O   -10.33006  -11.59797   -0.78991
      H1   -10.92245  -10.89524   -1.02489
       H     1.73856  -14.86534    0.17861
       O     1.35814  -13.98553    0.18551
      H1     1.94735  -13.42439   -0.37744
       H    -3.48851  -10.33418    6.91298
       O    -3.05089   -9.74053    6.28136
      H1    -3.00767  -10.15135    5.38885
       H    -3.69326  -11.23698   -3.64102
       O    -3.51062  -11.72937   -4.44030
      H1    -4.23572  -11.75631   -5.05186
       H     0.21866  -14.49778    4.87919
       O     0.86469  -14.48084    5.60507
      H1     1.71024  -14.11777    5.24774
       H    -3.24350  -16.26016    7.14068
       O    -2.30053  -16.17814    7.28119
      H1    -2.09144  -16.86570    6.66359
       H   -11.22425  -11.58190    5.22124
       O   -11.25765  -11.90423    4.30704
      H1   -10.44691  -12.42381    4.17274
       H   -12.07286  -15.67694    2.02771
       O   -11.76015  -15.99952    1.16156
      H1   -11.86843  -15.18449    0.59689
       H    -9.46160  -16.22173    4.23598
       O    -9.44307  -15.54658    4.95762
      H1   -10.44608  -15.62991    5.22094
       H    -7.60217  -16.73866    2.75876
       O    -6.73789  -16.28053    2.75785
      H1    -6.62557  -15.95908    1.80626
       H    -5.34069  -12.19726    1.20866
       O    -5.29624  -12.40564    2.15708
      H1    -5.13294  -13.32685    2.26928
       H    -2.33637  -17.13285    4.50041
       O    -1.98243  -17.77870    5.17139
      H1    -1.02835  -17.85829    4.95714
       H    -8.03256  -10.43048    5.49615
       O    -8.62612   -9.70457    5.42737
      H1    -8.96803   -9.59294    4.57050
       H    -5.13628  -15.10709   -0.41336
       O    -4.23716  -14.85299   -0.56693
      H1    -3.69626  -15.65659   -0.56856
       H    -6.14818  -16.62185   -4.38341
       O    -5.29513  -16.61355   -3.97363
      H1    -5.12670  -15.70259   -3.97627
       H    -2.91210  -14.71238    6.56913
       O    -3.28147  -13.90016    6.15188
      H1    -3.99723  -14.13531    5.51889
       H    -5.98761  -13.75040    4.27905
       O    -5.49286  -14.57157    4.31698
      H1    -6.00370  -15.16859    3.67704
       H    -8.33624   -8.37073   -1.07264
       O    -7.90321   -7.94885   -0.24460
      H1    -7.00679   -8.25199   -0.39555
       H    -8.42784  -17.99566    6.42116
       O    -7.56233  -17.99876    6.85880
      H1    -7.34854  -17.04053    7.06031
       H    -5.67923  -19.25791   -0.14027
       O    -4.92777  -19.66087    0.42556
      H1    -4.75129  -18.95852    1.07169
       H    -1.41580  -15.38200   -0.93231
       O    -1.90525  -16.20691   -0.72612
      H1    -1.35569  -16.93740   -1.03201
       H    -3.60754  -10.31164    3.01703
       O    -3.34216  -10.99974    3.67339
      H1    -3.96255  -11.72759    3.55603
       H    -2.08609  -15.89111    1.06636
       O    -2.07188  -16.06981    2.03891
      H1    -1.90379  -15.22038    2.53601
       H    -3.86406  -13.25502   -3.76541
       O    -3.95977  -14.20436   -3.53445
      H1    -4.07502  -14.24353   -2.54673
       H    -3.45644  -17.25827    2.46841
       O    -4.19153  -17.84668    2.41279
      H1    -4.91571  -17.28823    2.71282
       H    -8.10034  -12.93819   -3.45026
       O    -7.36902  -12.30389   -3.57307
      H1    -6.93553  -12.14807   -2.71904
       H    -4.61917  -11.69085   -1.45599
       O    -5.27242  -12.22513   -0.93732
      H1    -4.89511  -13.11515   -0.85353
       H    -0.13409   -9.56747    5.18069
       O    -0.06872   -9.33314    4.22488
      H1     0.54257   -8.58082    4.27061
       H    -0.92261  -13.24719   -1.05292
       O    -0.57929  -13.99820   -1.60907
      H1     0.22746  -14.34396   -1.23011
       H    -7.54059  -15.67874   -0.74968
       O    -7.12589  -15.15873   -0.04301
      H1    -7.60994  -14.34697    0.15474
       H    -3.68677   -6.16246    2.57157
       O    -4.44772   -6.75906    2.43176
      H1    -4.62457   -6.97041    3.34214
       H    -7.88940  -15.29181    8.08826
       O    -6.96871  -15.41252    7.68692
      H1    -6.42869  -15.82460    8.36289
       H    -8.43989  -11.82736    1.31494
       O    -8.64122  -12.60830    0.80971
      H1    -9.24422  -12.21653    0.13902
       H    -0.37188  -11.16146    3.34620
       O    -0.22041  -11.89415    2.75747
      H1    -0.82233  -11.66295    2.01246
       H    -0.77084  -13.31964    3.49214
       O    -1.22693  -14.13692    3.78032
      H1    -1.92715  -13.96646    4.46044
       H    -9.17310  -17.41275   -1.59053
       O    -8.54408  -16.70653   -1.88313
      H1    -8.44326  -16.92718   -2.83199
       H    -3.63433  -11.85358    8.88857
       O    -3.92302  -11.64048    7.97677
      H1    -3.50593  -12.34271    7.46660
       H    -6.92252  -13.53036    7.51502
       O    -6.71110  -12.60852    7.38091
      H1    -5.76184  -12.68032    7.47447
       H    -3.36126  -18.97045    5.44414
       O    -3.59072  -19.62333    6.06402
      H1    -2.75527  -20.13492    6.16733
       H    -6.29774  -10.56129    3.72483
       O    -6.33495   -9.65671    3.36905
      H1    -5.99966   -9.19311    4.13848
       H    -3.90895   -9.69539   -1.58740
       O    -3.46110  -10.43695   -2.10590
      H1    -2.71566  -10.70383   -1.54639
       H    -2.17110  -10.58983    0.18063
       O    -1.53695  -11.20118   -0.31121
      H1    -0.70757  -10.68778   -0.39045

