177
frame 8 | Written by MDAnalysis XYZWriter (release 2.4.3)
       H   -15.83539   -6.13481    9.72007
       O   -16.05806   -6.96555    9.22368
      H1   -16.84753   -6.63484    8.75157
       H   -18.80058    0.41225   10.22024
       O   -19.45321    0.43379   10.91295
      H1   -19.18611    1.21607   11.37646
       H   -16.96525    4.66876   18.09581
       O   -15.98488    4.72797   17.88418
      H1   -15.84956    5.69081   17.90643
       H   -12.48004   -6.76952   18.32807
       O   -13.01834   -7.54185   18.43206
      H1   -13.93334   -7.17470   18.46188
       H   -11.63969  -10.11037   16.89779
       O   -12.20910  -10.25410   17.63906
      H1   -12.55524   -9.35763   17.87973
       H   -12.04258    1.83727   12.56111
       O   -12.07970    0.90467   12.85576
      H1   -11.58834    0.92294   13.68355
       H   -16.30649   -5.22051   13.02393
       O   -15.62424   -4.55447   13.17083
      H1   -15.69848   -4.41479   14.13685
       H   -12.48001    1.62872   17.94112
       O   -11.67384    1.93565   17.51056
      H1   -11.00243    1.95235   18.16984
       H   -13.15584   -2.12731   15.36579
       O   -12.87542   -1.43852   14.68288
      H1   -12.34238   -1.98819   14.10287
       H   -14.35639    2.40856   10.34842
       O   -13.57532    2.39898    9.85392
      H1   -13.34560    1.49563    9.72479
       H   -13.63869    3.84255   14.84212
       O   -13.23804    4.29106   14.10234
      H1   -12.36316    4.68610   14.43843
       H   -14.82985   -9.20784   15.43615
       O   -15.15150   -9.52344   16.31568
      H1   -14.39432   -9.65149   16.83328
       H   -10.91850   -4.34860   17.77079
       O   -11.05639   -5.01400   18.52015
      H1   -10.43083   -5.71034   18.29189
       H   -15.78670   -2.81558   12.72978
       O   -16.02956   -1.93731   12.38406
      H1   -16.99883   -1.83019   12.49751
       H   -16.01053    4.14989   12.12300
       O   -15.95426    4.50057   13.02660
      H1   -15.63882    5.37931   13.04736
       H   -19.20672    2.37875   13.11759
       O   -18.63214    2.50926   12.38293
      H1   -17.70358    2.57912   12.50941
       H   -17.03252   -8.05767   10.46014
       O   -17.69450   -8.32319   11.08298
      H1   -18.46106   -7.88066   10.71517
       H   -15.79845   -4.21659   11.17702
       O   -15.27671   -4.29106   10.36493
      H1   -14.37485   -3.99739   10.45083
       H   -17.46284   -6.82501   14.05966
       O   -17.73845   -6.54062   13.16469
      H1   -17.34909   -7.20275   12.55635
       H   -15.73051    1.82196   11.77829
       O   -15.95788    2.46930   11.13672
      H1   -16.37752    1.99052   10.32263
       H   -16.75429    0.68642    8.58624
       O   -16.94567    0.34609    9.49818
      H1   -16.28053   -0.36955    9.73380
       H   -18.26616   -3.03068   15.95592
       O   -18.33356   -3.97046   16.09897
      H1   -18.59370   -4.08270   17.01317
       H   -12.06892   -0.05409   11.42453
       O   -12.35649   -0.49194   10.57241
      H1   -13.26868   -0.63055   10.63412
       H   -20.00970   -5.27700   18.66915
       O   -19.05715   -4.96241   18.76754
      H1   -18.90434   -4.96143   19.73763
       H   -15.17421   -0.11116   12.80916
       O   -14.83132    0.74010   13.09012
      H1   -13.87645    0.73307   12.91435
       H   -18.86528   -2.81066   19.42353
       O   -18.75203   -1.86447   19.29499
      H1   -19.60352   -1.40361   19.37303
       H   -14.09347    2.09486   19.38582
       O   -14.06928    1.21416   18.96691
      H1   -13.78058    0.66976   19.73456
       H   -12.11478   -7.74346   10.82650
       O   -12.64142   -7.88746   11.61094
      H1   -12.85379   -7.06390   12.01386
       H   -10.99397   -2.15353   20.14644
       O   -11.43231   -1.25777   19.97012
      H1   -11.90381   -1.31597   19.13155
       H   -19.41700   -2.52483   10.11696
       O   -18.90387   -2.75486    9.33794
      H1   -19.12007   -2.15378    8.61521
       H   -16.89439    0.48600   18.82947
       O   -17.31669    0.37937   19.73287
      H1   -17.88225   -0.44585   19.66938
       H    -7.98164   -2.00293   18.49100
       O    -8.26977   -2.09887   17.60039
      H1    -7.38711   -2.19377   17.18899
       H   -14.69237   -1.66084    9.07022
       O   -14.82655   -1.23555    9.92464
      H1   -15.35293   -1.90189   10.43991
       H    -9.18541   -5.35497   12.20978
       O    -9.95379   -5.84476   12.46696
      H1   -10.48814   -5.14086   12.87985
       H   -14.94529    4.13261   19.24701
       O   -14.08430    3.76337   19.68182
      H1   -13.42238    4.27523   19.16802
       H   -16.61040   -7.42508   18.25689
       O   -17.26100   -7.73066   17.56074
      H1   -16.81058   -8.45217   17.08818
       H   -13.66066   -7.25189   16.71931
       O   -13.80892   -6.80022   15.87045
      H1   -14.67103   -6.37861   15.97378
       H   -19.14299    2.75888   17.83934
       O   -19.60001    1.91321   18.01318
      H1   -18.89318    1.44381   18.51014
       H   -17.01029   -6.64166   16.26677
       O   -16.54801   -6.07838   15.64269
      H1   -16.91250   -5.15975   15.78946
       H   -11.90615   -3.98907   13.25331
       O   -11.21685   -3.44072   13.66057
      H1   -10.79980   -3.01082   12.89983
       H   -12.96298   -0.83735   16.91087
       O   -12.64878   -1.56367   17.53997
      H1   -11.83792   -1.94153   17.21796
       H   -14.87431   -3.66379   16.65666
       O   -14.94414   -3.46968   15.72818
      H1   -15.35802   -2.59464   15.68755
       H    -9.84938   -2.58587   16.84867
       O   -10.67781   -2.99348   16.57440
      H1   -10.69255   -2.92906   15.64518
       H   -19.04883   -0.66455   12.21421
       O   -18.83384   -1.46065   12.69339
      H1   -18.77974   -1.23540   13.59871
       H   -10.04440   -7.56502   12.85410
       O    -9.79751   -8.43905   13.21971
      H1   -10.00726   -9.10455   12.58766
       H    -8.09062   -4.06504   16.98144
       O    -8.07443   -4.98574   17.05631
      H1    -7.91754   -5.27649   16.11020
       H    -8.17602    0.15494   13.31078
       O    -8.20720   -0.13804   14.18973
      H1    -9.11545   -0.14288   14.53369
       H    -8.99726   -2.20485   11.69677
       O    -9.94669   -2.08701   11.42911
      H1    -9.95619   -1.63582   10.58513
       H   -15.79168    4.03322   16.29251
       O   -15.64586    3.31153   15.63176
      H1   -15.60623    3.64213   14.64984
       H   -17.44982   -1.01092   15.72254
       O   -18.37883   -1.23718   15.68358
      H1   -18.61061   -1.12680   16.61838
       H   -11.89813    3.87254   17.42434
       O   -12.08642    4.69078   18.00211
      H1   -11.33882    4.80448   18.62919
       H   -15.92816    1.84735   16.56519
       O   -16.10656    1.19320   17.27478
      H1   -15.24915    1.25794   17.82274
       H   -15.47102   -0.16015   16.04112
       O   -15.61763   -0.83221   15.39730
      H1   -15.02937   -0.55900   14.67140
       H   -13.47629   -4.45292   18.48015
       O   -14.30013   -3.95056   18.42531
      H1   -13.97051   -3.07778   18.34109
       H   -16.75399   -2.33610    6.97945
       O   -16.07192   -2.76354    7.57772
      H1   -16.51799   -2.85875    8.42403
       H   -13.08335   -6.06901   14.23476
       O   -13.07240   -5.56881   13.44750
      H1   -14.05445   -5.37447   13.40538
       H   -10.91115    0.78114   15.95008
       O   -10.70951    0.33244   15.13264
      H1   -11.45619   -0.29337   15.10954
       H   -12.20591   -2.52830    9.92587
       O   -12.66543   -3.31925    9.64741
      H1   -12.55010   -3.40302    8.69014
       H   -14.46972   -9.87125   13.05619
       O   -14.46728   -8.90873   13.24588
      H1   -13.86618   -8.57988   12.53919

