177
frame 6 | Written by MDAnalysis XYZWriter (release 2.4.3)
       H     9.97183    5.42114  -11.80642
       O    10.48682    5.30238  -11.03784
      H1     9.84066    4.92529  -10.38772
       H     8.00176    8.98930  -12.25107
       O     8.81166    9.44305  -12.50492
      H1     9.38609    9.23514  -11.77103
       H    15.76695    9.02384   -6.70408
       O    14.99072    9.53309   -6.35152
      H1    14.68171    9.06277   -5.52970
       H    12.31269    9.57643  -13.73635
       O    12.07599   10.51607  -13.80252
      H1    12.85397   10.99377  -14.20867
       H     8.75323   14.88769  -11.32912
       O     8.61562   15.41605  -12.13811
      H1     8.18197   14.91910  -12.80759
       H    12.68297    5.88243   -7.83283
       O    12.02622    5.40954   -7.20623
      H1    12.50077    5.54629   -6.35088
       H    13.38536   12.81420   -4.69587
       O    13.72251   13.72754   -4.70526
      H1    12.91484   14.10579   -4.29082
       H    14.05388   12.08724  -11.66386
       O    14.31128   12.67661  -12.38024
      H1    13.80982   13.50311  -12.10801
       H    15.99922   12.46968  -12.04220
       O    16.93925   12.21270  -12.11876
      H1    17.36065   12.58846  -11.30874
       H    14.46838    9.63796   -8.22621
       O    14.88927    9.25609   -9.03002
      H1    14.28127    9.58204   -9.67798
       H    15.93343   14.62622   -8.92430
       O    16.35904   13.88226   -8.46160
      H1    16.93348   13.54199   -9.16019
       H     8.99165   12.47605   -8.21694
       O     9.81082   12.54812   -7.79232
      H1     9.58555   12.63823   -6.85794
       H     7.72764   11.65022   -5.58079
       O     8.35891   12.39401   -5.40802
      H1     7.88890   13.12212   -5.02037
       H    11.79478   17.54137   -9.95112
       O    12.28685   16.76283   -9.69184
      H1    12.43916   16.01071  -10.32811
       H    10.16709   10.73448   -3.15863
       O     9.42914   10.29728   -3.73403
      H1     9.11605   11.06644   -4.20334
       H    10.63438   12.06813  -10.31490
       O    10.42447   12.91809  -10.86190
      H1    10.29241   12.64916  -11.75974
       H    12.34699   10.76661  -10.85539
       O    13.16126   10.85588  -10.36212
      H1    12.87347   10.96415   -9.47413
       H     9.61158   17.42867  -14.17592
       O     9.94935   16.58667  -14.37215
      H1     9.71972   16.01509  -13.58739
       H    11.17555   18.51741   -6.80327
       O    11.43782   18.42488   -7.70627
      H1    11.87844   17.56454   -7.64269
       H     3.99605    9.85035  -11.59336
       O     4.84458    9.76925  -11.14988
      H1     5.39755   10.38070  -11.70034
       H     9.24069   15.80907   -8.89072
       O     8.63409   16.37996   -9.40919
      H1     9.12511   17.20156   -9.54669
       H    14.17150    8.04860  -12.93726
       O    13.25027    7.82867  -13.12060
      H1    12.82917    7.79682  -12.29922
       H     5.54541   16.50128  -10.20487
       O     5.66609   16.03455  -11.04850
      H1     6.62843   15.88828  -11.15009
       H     7.48604   13.23786  -14.71376
       O     7.71022   14.19184  -14.54573
      H1     7.07594   14.72177  -15.05620
       H     9.63064    9.81427   -9.60514
       O    10.40044    9.93012  -10.16275
      H1    10.86934    9.11853  -10.04150
       H    14.50005   11.46744  -15.29449
       O    14.00168   12.19067  -14.91836
      H1    14.53020   12.41339  -14.06204
       H     6.06244   18.11304   -8.44882
       O     6.00497   17.16512   -8.48681
      H1     6.93961   16.88876   -8.65552
       H     9.72141   12.65893  -17.29724
       O     9.05015   11.93178  -17.35378
      H1     8.79932   11.79866  -16.42026
       H    13.04666   12.30646   -7.79874
       O    12.59184   11.40891   -7.77604
      H1    11.66163   11.67495   -7.69829
       H    10.49939   14.16818   -7.88060
       O    10.65266   15.11866   -7.71890
      H1    11.54780   15.21962   -8.08455
       H     5.28903   14.36957  -10.82272
       O     5.33149   13.39506  -10.58839
      H1     4.43723   13.21891  -10.29642
       H    13.10091   16.43414  -13.97122
       O    12.27718   16.23048  -13.47287
      H1    11.50861   16.44032  -13.98224
       H     9.40676    8.00786   -7.58849
       O     8.89391    8.66767   -8.07668
      H1     8.08727    8.10627   -8.10320
       H    16.23325    9.14945  -11.58618
       O    15.81498    8.79717  -12.35228
      H1    16.42856    8.21458  -12.80917
       H    10.60095   11.63546  -13.58201
       O     9.75700   11.90677  -13.21296
      H1     9.39166   11.03937  -12.94729
       H    14.47826   16.74674   -9.29710
       O    15.22979   16.15507   -9.24445
      H1    15.82291   16.54230   -8.60535
       H    12.06613   19.37273  -14.26351
       O    11.88616   18.95175  -13.36594
      H1    12.03468   18.00531  -13.39960
       H    10.46183   15.20294   -4.11378
       O    10.20846   14.64344   -3.35244
      H1     9.20498   14.68082   -3.21886
       H     6.34615    6.27071   -7.58654
       O     6.42461    6.78357   -8.37513
      H1     5.80554    7.56088   -8.30158
       H     6.38819    9.72349   -6.42128
       O     6.36358   10.68258   -6.48463
      H1     5.36187   10.89457   -6.40769
       H    11.61524    6.79086  -10.43229
       O    12.01689    7.65854  -10.56471
      H1    12.75032    7.63206   -9.96789
       H     9.46855    7.76360  -15.10573
       O    10.10646    7.33078  -14.48792
      H1    10.56100    8.02472  -14.01135
       H     7.51440   11.75652  -12.05530
       O     6.58283   11.56020  -12.16488
      H1     6.14150   12.32384  -11.73885
       H    16.31358    9.99888   -9.81697
       O    17.11386   10.12460  -10.33486
      H1    16.90931   10.72061  -11.01839
       H    14.04130   13.99010   -6.58572
       O    13.70358   13.90240   -7.48413
      H1    14.54409   13.84204   -7.99999
       H    12.62199   10.92366   -5.83878
       O    12.72242   11.08370   -4.92738
      H1    11.98016   10.78898   -4.43797
       H    10.21207   15.92505   -6.06655
       O    10.69137   16.32463   -5.32810
      H1    10.19016   17.14936   -5.13927
       H     4.99355    9.17514   -9.44305
       O     4.69911    8.91044   -8.55330
      H1     4.00489    8.24283   -8.74657
       H    10.29031   18.96811   -9.05338
       O     9.63167   19.24484   -9.73262
      H1    10.11171   19.91404  -10.17669
       H     4.92014   15.34654   -7.98893
       O     5.02137   14.38689   -7.72292
      H1     5.81824   14.10666   -8.14167
       H     4.86927   11.17439  -14.96710
       O     5.08862   10.34358  -14.39739
      H1     5.88711   10.56481  -13.98341
       H     6.64695   12.46062   -9.48731
       O     7.20454   12.31269   -8.69998
      H1     6.76695   11.74202   -8.03888
       H     6.94810    6.79403  -11.95382
       O     6.57613    7.55932  -12.42490
      H1     6.00917    7.99314  -11.74912
       H    11.82423   14.19478  -11.07083
       O    12.60709   14.69987  -11.35332
      H1    12.40820   15.10150  -12.19297
       H    10.35018   10.46383  -16.59810
       O    11.02651    9.89170  -16.28886
      H1    11.36695   10.33535  -15.47495
       H    14.51307    7.36636   -8.57487
       O    13.96373    6.55410   -8.77354
      H1    14.51140    5.95131   -9.26025
       H     8.43079   11.46990  -14.43510
       O     7.90724   11.31350  -15.22748
      H1     7.96978   10.43183  -15.55731
       H     9.52694    7.48607   -5.05409
       O    10.11439    8.17093   -5.40454
      H1    10.03089    8.97778   -4.96060
       H    13.27596   15.39037   -7.06521
       O    13.13566   16.30592   -6.76077
      H1    12.47750   16.22787   -6.05190

