177
frame 10 | Written by MDAnalysis XYZWriter (release 2.4.3)
       H    14.01374  -13.30020    4.27157
       O    13.22865  -13.05821    3.79167
      H1    12.71760  -13.87582    3.73241
       H     7.74006  -18.11531   -5.06883
       O     6.81256  -18.24934   -5.39388
      H1     6.47770  -17.36977   -5.40747
       H    15.68796  -15.07162    0.19103
       O    15.60444  -14.18368   -0.26276
      H1    15.14685  -14.46661   -1.08486
       H     9.58342  -13.80155   -1.50107
       O     9.40409  -13.00438   -1.98965
      H1    10.12802  -12.85864   -2.59781
       H    11.46193  -14.13599    1.88237
       O    11.39767  -14.78474    2.59150
      H1    11.83374  -15.59244    2.30205
       H    12.41112  -17.21166   -4.47083
       O    11.80780  -16.58580   -4.04002
      H1    11.68573  -15.90507   -4.72457
       H    14.68997  -17.24299   -6.44581
       O    13.78134  -17.62531   -6.19592
      H1    13.09076  -17.10992   -6.65328
       H     7.49053  -15.19957    5.34860
       O     7.11066  -15.96447    4.89519
      H1     7.76673  -15.98124    4.17157
       H     8.76002  -15.88831   -0.71532
       O     9.46668  -15.42736   -0.31592
      H1     9.30904  -15.55686    0.62673
       H     1.42906  -14.86083    1.95437
       O     2.12623  -15.49901    2.27540
      H1     2.68447  -15.67906    1.48897
       H     8.22598  -13.95376   -3.58360
       O     8.14842  -14.79104   -4.07152
      H1     8.41058  -14.54000   -4.95685
       H    12.09131  -18.12301   -0.69114
       O    11.95767  -18.98095   -0.23780
      H1    11.67702  -19.57555   -0.97912
       H     9.27849  -10.54662   -4.45652
       O     9.82639  -11.33175   -4.46272
      H1    10.30903  -11.19436   -5.28839
       H     8.55172  -18.22564   -2.74136
       O     8.33902  -18.50859   -1.83383
      H1     7.55295  -17.89180   -1.78612
       H     3.65086  -15.26313   -3.59819
       O     3.54331  -14.91883   -4.54430
      H1     2.68804  -15.21847   -4.81394
       H     6.28744  -10.78097    1.71243
       O     6.79270  -11.51000    1.36761
      H1     7.37925  -11.04258    0.72465
       H     5.00198  -18.97737    2.86088
       O     5.27276  -19.88568    2.46804
      H1     4.67923  -19.93040    1.69979
       H     7.55659  -17.42114   -9.34450
       O     7.17729  -16.81005  -10.04450
      H1     6.26928  -16.98048   -9.78830
       H     8.46750  -14.30277    2.94213
       O     8.68805  -15.17862    2.59824
      H1     9.65750  -15.16304    2.64316
       H     5.75333  -15.50955   -6.72738
       O     5.35943  -16.15707   -6.18768
      H1     5.04911  -15.67225   -5.42862
       H     1.08308  -15.10893   -3.18155
       O     1.00166  -14.90734   -2.21765
      H1     0.68344  -14.02129   -2.24839
       H     8.56778   -9.75805   -0.77830
       O     8.67329  -10.59406   -0.30753
      H1     8.91638  -11.24035   -0.95830
       H    15.06559  -18.94779   -1.10568
       O    15.31883  -18.00821   -0.99627
      H1    15.77341  -17.85388   -0.13525
       H    13.16533  -12.58560   -0.96599
       O    12.70110  -13.00068   -1.73651
      H1    13.41256  -13.46270   -2.18945
       H     5.22611  -12.64899   -8.44256
       O     5.87184  -12.51881   -7.72453
      H1     5.24874  -12.38869   -6.96928
       H     4.08904  -17.38813    0.41393
       O     4.42429  -16.48486    0.58952
      H1     4.43572  -16.08216   -0.27773
       H     7.58157  -13.21844   -1.38306
       O     6.68507  -13.30640   -1.18999
      H1     6.50593  -12.74239   -0.39031
       H     6.61386  -13.95364   -8.10066
       O     7.10046  -14.80546   -7.96580
      H1     6.95817  -15.37363   -8.67568
       H     9.11020  -19.15138   -8.47452
       O     9.98961  -18.79517   -8.37673
      H1    10.53346  -19.58641   -8.22829
       H     4.05666  -11.63629   -5.03496
       O     3.87467  -12.12675   -5.84431
      H1     3.90367  -13.06658   -5.63771
       H     7.82639  -12.36964    2.50264
       O     8.49189  -12.67439    3.17501
      H1     9.30730  -12.65086    2.65765
       H     6.38681  -15.97638   -3.22018
       O     6.47719  -16.64223   -2.52996
      H1     5.68081  -16.71347   -2.13370
       H    10.41476  -17.14750   -7.16009
       O    10.83202  -16.34536   -6.93330
      H1    10.15892  -15.65725   -6.95210
       H    12.94405  -15.09050   -9.11043
       O    12.28494  -15.50023   -9.68700
      H1    11.56047  -15.82131   -9.12773
       H    15.18169  -15.31239   -2.93967
       O    14.43056  -14.77475   -2.72361
      H1    13.81030  -15.35064   -2.25374
       H    -0.06402  -19.53443   -3.04009
       O     0.36128  -19.00793   -2.32483
      H1    -0.37381  -18.48906   -1.94203
       H    13.84017  -14.60131   -7.12402
       O    14.25692  -14.56044   -8.00619
      H1    14.50751  -13.60202   -8.19519
       H     2.92050  -19.63994    0.51917
       O     3.75550  -19.15372    0.34794
      H1     4.11164  -19.64348   -0.42551
       H     4.21172  -18.56075    5.50998
       O     3.58302  -18.49905    6.20550
      H1     2.87851  -17.85853    5.88231
       H     4.12842  -18.51761   -9.40957
       O     4.62487  -19.20520   -8.88604
      H1     4.68002  -18.90526   -7.97273
       H     2.34115  -12.01879   -1.39362
       O     2.65058  -12.42084   -0.56532
      H1     3.02683  -11.69005   -0.08818
       H    10.29211  -17.09056   -4.15124
       O     9.33360  -17.36437   -4.01557
      H1     8.78400  -16.53378   -3.94998
       H    13.37725  -13.45052   -5.58855
       O    13.16626  -14.37474   -5.58812
      H1    13.73265  -14.66311   -4.82044
       H    11.97663  -16.46026   -2.31799
       O    12.50394  -16.49623   -1.41416
      H1    11.88773  -16.00937   -0.81544
       H     3.07343  -15.40474   -1.71496
       O     4.04999  -15.35936   -1.77706
      H1     4.22067  -14.49527   -1.42879
       H     7.12863  -19.36337    1.99217
       O     8.04555  -19.53922    1.94079
      H1     8.31414  -19.53162    2.84262
       H     5.52245  -17.10832    3.49589
       O     4.68841  -17.43487    3.24453
      H1     4.57895  -17.16258    2.33286
       H     1.89376  -18.01221   -3.14708
       O     2.72702  -17.63562   -3.41972
      H1     2.92314  -18.15380   -4.18406
       H     9.44681  -19.68712    4.75335
       O     8.88625  -18.96509    4.99655
      H1     9.28999  -18.47350    5.73745
       H    13.97901  -17.98016    2.71266
       O    14.49354  -18.34362    3.46168
      H1    15.11430  -17.58751    3.63500
       H    13.80602  -16.82335    0.74657
       O    13.30984  -16.75212    1.60828
      H1    12.62382  -17.44808    1.56260
       H    11.04376  -11.79372    0.95015
       O    10.90993  -12.75725    0.88549
      H1    11.22832  -13.00320    0.02077
       H    10.72156  -18.33251    1.25567
       O    10.89326  -18.06180    2.21629
      H1    10.17696  -18.48024    2.72053
       H    16.55068  -16.77967   -4.50390
       O    16.58235  -16.55826   -3.59568
      H1    16.11203  -17.31676   -3.19159
       H     8.39204  -14.20641   -7.25520
       O     9.23861  -14.10823   -6.70043
      H1     9.60936  -13.29484   -7.12006
       H    12.39451  -11.36809   -2.61305
       O    11.96908  -10.52822   -2.86088
      H1    11.11516  -10.68948   -3.28056
       H     2.88399  -17.75344   -6.70446
       O     3.64008  -18.20631   -6.31639
      H1     4.29411  -17.46015   -6.16048
       H     6.06809  -19.55191    5.48690
       O     6.41859  -18.81571    6.02676
      H1     7.30977  -18.78603    5.69503
       H     5.99929  -11.27659   -1.91282
       O     5.94986  -10.40385   -2.22625
      H1     5.11469  -10.36407   -2.71070

