177
frame 3 | Written by MDAnalysis XYZWriter (release 2.4.3)
       H     6.18196  -18.95418  -15.17397
       O     5.29995  -19.28430  -14.96086
      H1     5.39500  -20.25841  -14.95782
       H     7.77732  -18.23694   -3.98675
       O     7.98020  -19.04049   -4.50619
      H1     7.24694  -19.66193   -4.34148
       H     6.37222   -8.15130  -12.73444
       O     5.93580   -8.96539  -12.50018
      H1     6.67421   -9.53798  -12.18139
       H     3.26516  -16.51481   -9.10747
       O     3.13571  -17.48904   -9.15133
      H1     3.85041  -17.83433   -9.72931
       H     1.71197  -12.19315   -6.18593
       O     1.07836  -12.62506   -6.77631
      H1     0.36182  -13.04549   -6.21651
       H     8.28548   -8.87427  -10.43395
       O     7.63857   -8.91994   -9.67579
      H1     6.93191   -8.32444   -9.95561
       H    13.33418  -18.03390   -6.16741
       O    12.55200  -18.49197   -6.51499
      H1    11.67845  -18.08714   -6.18075
       H     3.48965  -11.54897   -4.73222
       O     2.54471  -11.60968   -4.65121
      H1     2.44703  -12.54182   -4.43682
       H     5.16167  -16.86842  -14.84760
       O     5.46615  -16.21514  -14.18917
      H1     6.31007  -16.51387  -13.80812
       H     6.61826  -12.75513  -11.30677
       O     5.78243  -12.74215  -11.75614
      H1     5.89066  -12.62293  -12.69403
       H     8.55593  -14.18678   -1.85854
       O     7.94903  -14.38210   -2.61858
      H1     8.51324  -14.39566   -3.36255
       H     6.39235  -13.92417   -4.03627
       O     5.51533  -13.53381   -4.30337
      H1     4.88672  -14.24660   -4.20959
       H     5.40573  -12.82948  -15.39672
       O     5.41419  -13.62542  -15.94515
      H1     5.41404  -14.35382  -15.34780
       H     3.88271   -9.76370   -7.36365
       O     4.30799   -8.90640   -7.49397
      H1     4.46049   -8.80533   -8.43814
       H     8.29381  -17.00571   -9.12314
       O     8.33108  -16.09920   -9.55435
      H1     8.12804  -16.33743  -10.45803
       H     7.83096  -17.41264   -5.98012
       O     7.08354  -16.75127   -5.93042
      H1     7.58580  -15.96953   -6.10971
       H     5.36467  -11.61128   -8.92574
       O     6.24089  -11.84263   -8.62008
      H1     6.43572  -11.23863   -7.93980
       H     3.08194  -19.10302  -12.20274
       O     2.17614  -18.83152  -12.37321
      H1     2.27726  -17.89412  -12.63069
       H    11.46934  -11.84055   -8.65545
       O    10.53930  -12.15522   -8.64651
      H1    10.65441  -13.11946   -8.74993
       H    13.24241  -11.60994   -9.76003
       O    13.05828  -11.09461   -9.00993
      H1    13.89371  -10.61565   -8.93370
       H     6.08204  -13.80631   -8.72551
       O     6.15119  -14.72616   -8.45311
      H1     6.90926  -15.02726   -8.99983
       H    12.07673  -11.46801   -4.81259
       O    11.62816  -10.65329   -5.05962
      H1    10.81070  -10.78914   -5.59429
       H    12.84723  -18.35081   -8.32303
       O    12.62454  -18.26342   -9.25869
      H1    13.12839  -17.53001   -9.57729
       H     9.45822  -19.15636   -6.33057
       O     9.60603  -18.44594   -6.96231
      H1     9.97488  -18.80147   -7.77386
       H     5.30876   -9.79696   -4.22915
       O     5.18614  -10.54307   -4.85175
      H1     5.49380  -11.39979   -4.40199
       H     2.10520  -11.28677   -8.69702
       O     2.97358  -10.98123   -8.76904
      H1     2.87351  -10.38922   -9.55212
       H     7.05242  -15.91234   -2.80222
       O     6.52788  -16.69437   -3.07575
      H1     6.44497  -16.72669   -4.08604
       H    10.30223  -17.11121   -5.70929
       O    10.88070  -16.72385   -5.03814
      H1    11.28206  -15.96242   -5.50670
       H     8.65695  -11.17365   -6.17990
       O     9.37010  -11.80759   -6.21024
      H1     9.55243  -11.79366   -7.21554
       H    11.05247  -14.00353   -6.04869
       O    11.80995  -14.52171   -6.30814
      H1    11.52736  -14.92306   -7.13041
       H    13.49759  -14.47539   -6.45119
       O    14.44975  -14.37220   -6.54761
      H1    14.65397  -13.49335   -6.23445
       H    11.45621  -15.38312   -9.20934
       O    10.70969  -14.93766   -8.75494
      H1     9.94823  -15.41973   -9.13966
       H     7.00025  -19.84057   -9.62124
       O     7.32258  -19.27101   -8.88112
      H1     6.58751  -19.16361   -8.25083
       H     4.14804  -16.27293  -13.12585
       O     3.15723  -16.23655  -12.92326
      H1     2.68059  -16.17252  -13.78152
       H     6.96435   -7.93163   -6.93962
       O     6.27582   -7.19643   -6.95411
      H1     5.35340   -7.52249   -6.83462
       H     3.10627  -14.23390  -12.21857
       O     3.31801  -13.48042  -11.58591
      H1     4.25256  -13.17009  -11.60366
       H    10.64330  -18.42190   -2.31624
       O    10.40929  -17.49611   -2.21637
      H1    10.73468  -17.19946   -3.07205
       H     5.58868  -10.34835  -13.69442
       O     5.13773  -11.09314  -14.16033
      H1     4.34119  -11.14922  -13.70040
       H     1.33602  -18.39210  -10.23258
       O     0.41652  -18.19377  -10.28028
      H1    -0.08514  -18.93606  -10.68319
       H    10.15296  -10.86862  -10.30263
       O    10.64132  -10.40737  -11.03807
      H1    11.05493  -11.11702  -11.56484
       H     4.01972  -17.16471   -1.10682
       O     4.37095  -16.47691   -1.62449
      H1     5.08269  -16.77182   -2.11995
       H     6.39015  -10.05619   -6.25315
       O     7.17919  -10.03659   -6.81609
      H1     7.08357   -9.56109   -7.63348
       H     0.76210  -19.12514   -6.88574
       O     1.66738  -19.38980   -6.53027
      H1     2.19951  -18.57908   -6.42581
       H     3.62632  -15.99307   -3.26715
       O     3.34780  -15.55373   -4.03303
      H1     2.53413  -15.12599   -3.80712
       H    10.09815  -14.65301  -12.93902
       O     9.60382  -15.11292  -13.69715
      H1    10.16740  -14.98555  -14.43588
       H     1.13240  -15.93044   -7.73056
       O     0.46525  -16.01023   -8.44440
      H1     0.78383  -16.60417   -9.08781
       H     1.37934  -13.04091  -10.41019
       O     0.49156  -13.37439  -10.42564
      H1     0.56030  -14.04937   -9.74700
       H    11.73440  -13.97874  -11.49227
       O    11.29474  -13.45791  -12.16871
      H1    11.89746  -13.52173  -12.92318
       H     3.36951  -14.66812   -9.96723
       O     3.50175  -14.88906   -9.05570
      H1     4.47029  -14.88340   -8.94533
       H     9.26548  -13.46800  -11.07145
       O     8.63128  -12.78501  -10.80665
      H1     8.69189  -12.85834   -9.84711
       H     2.87219  -15.48405   -7.28765
       O     2.58684  -16.07105   -6.59426
      H1     3.04386  -15.82935   -5.72958
       H     3.35785  -12.45881   -2.08671
       O     4.27918  -12.48271   -1.80861
      H1     4.78180  -12.75380   -2.57850
       H     8.20911   -9.79038  -12.46713
       O     8.13802  -10.66183  -12.89322
      H1     8.53595  -11.26170  -12.27902
       H     4.93110   -6.97705  -10.13252
       O     4.92220   -7.92642  -10.05543
      H1     5.19134   -8.36290  -10.92038
       H     7.47811  -14.15051   -7.11444
       O     8.22287  -14.25350   -6.53276
      H1     8.48273  -13.34456   -6.34869
       H     4.39090  -18.60149   -7.52861
       O     5.08098  -18.97029   -6.92929
      H1     5.50956  -18.19139   -6.57044
       H     2.97878  -11.97554  -12.25202
       O     3.10085  -11.03872  -12.49188
      H1     2.40932  -10.71340  -13.08610
       H     8.69493  -16.73659  -12.82126
       O     8.07361  -16.99367  -12.13509
      H1     8.27021  -17.94886  -12.02745
       H    13.67863  -14.73557  -10.11081
       O    12.92426  -15.21366  -10.48339
      H1    13.39638  -15.84685  -11.03259

