180
frame 5 | Written by MDAnalysis XYZWriter (release 2.4.3)
       H     4.77914   11.46718   15.16148
       O     5.67817   11.43437   14.69384
      H1     5.97278   12.32746   14.88711
       H     2.63182   11.69651   19.66355
       O     2.24536   12.59342   19.48626
      H1     2.90864   12.99944   18.95279
       H    11.00811   13.26199   12.11347
       O    10.46177   13.70768   11.47647
      H1     9.63879   13.81864   11.99257
       H     0.61980   15.28111   16.58996
       O     0.70261   14.65699   17.32503
      H1     0.12385   15.02894   18.04689
       H    11.69179   14.59433   17.37629
       O    12.65258   14.55680   17.35759
      H1    13.02701   14.96182   18.17471
       H     8.75611   10.55616   16.94232
       O     8.19467   11.24439   17.23503
      H1     8.22814   11.20555   18.20864
       H     4.04187   17.95217   14.47553
       O     4.51071   18.10922   15.30862
      H1     4.85628   18.98166   15.35456
       H     5.23691   10.70703   16.69598
       O     5.76895   10.21322   17.38564
      H1     6.57133   10.68342   17.04910
       H    -0.13483   19.23691   19.60858
       O    -0.43576   18.45313   18.97679
      H1     0.37020   17.95352   19.03665
       H     6.23393   14.85885   19.43252
       O     7.12862   15.29401   19.64648
      H1     7.58767   15.29415   18.78761
       H     9.17854   17.95810   16.46923
       O     9.74084   17.56969   17.13798
      H1    10.58820   18.01969   16.92829
       H     0.20218   16.72545   14.73855
       O     0.52285   15.83986   14.83284
      H1    -0.25487   15.27079   14.78023
       H    10.98432   19.05144   14.45603
       O    11.68094   18.70143   13.86297
      H1    12.31163   18.33929   14.49223
       H    14.49047    8.62196   16.50440
       O    14.54347    9.20621   15.74512
      H1    13.79011    9.79207   15.76116
       H    16.34892   17.49279   11.00993
       O    16.38957   16.65772   10.48151
      H1    16.35294   17.03647    9.57409
       H     4.38655   19.47733   12.58985
       O     5.15637   18.96770   12.49412
      H1     5.00317   18.55148   11.67376
       H    14.94381   13.70533   11.02202
       O    14.02190   13.57856   10.66353
      H1    14.19357   13.46870    9.71373
       H     2.37038   16.34419   13.97439
       O     2.86821   16.92576   13.36102
      H1     2.69879   16.59829   12.50304
       H     9.72506   10.47208   12.69726
       O     9.93188   10.47781   13.67451
      H1    10.72075   11.05221   13.57759
       H    11.83439   16.51678   11.31141
       O    11.01258   16.50702   10.89055
      H1    10.66140   15.60994   11.06234
       H     8.32242   17.17594   13.28442
       O     9.12481   16.71085   13.50968
      H1     9.86120   17.24750   13.10796
       H    11.76016   15.37075   15.14813
       O    11.42017   14.97115   14.37741
      H1    10.46740   15.24479   14.38044
       H    18.24295   16.33028   13.51541
       O    17.52169   16.83374   13.91859
      H1    16.79538   16.22480   14.19837
       H     7.88791   13.63177   13.09186
       O     8.64428   14.07721   13.41722
      H1     8.59127   15.02828   13.18415
       H    14.33072   16.99804   18.39019
       O    14.51536   16.12374   18.86159
      H1    15.38904   16.33292   19.17969
       H    10.00244    8.76329   16.17846
       O    10.41042    9.05744   16.97965
      H1     9.95001    8.35765   17.49882
       H     1.57114   14.28946   10.95165
       O     1.85812   14.91063   11.62279
      H1     0.98325   15.27328   11.97589
       H     9.16552   14.25215    7.97209
       O     9.32141   15.19853    8.16203
      H1     8.59380   15.62525    7.77840
       H     1.70066   16.10758   18.01275
       O     1.99361   16.70360   18.72553
      H1     2.19456   17.51309   18.25893
       H    16.71452   19.73210   12.28678
       O    16.47573   19.29426   11.45558
      H1    15.71114   19.82401   11.17706
       H    13.79430   15.33232   11.47983
       O    13.80245   16.29946   11.41136
      H1    14.66668   16.47567   10.93116
       H    12.44373   11.93512   15.54070
       O    12.53768   11.25756   16.19646
      H1    11.79511   10.71900   16.03842
       H     5.52967   16.72279   12.57448
       O     5.91554   16.19173   13.26696
      H1     5.61482   16.76489   14.04221
       H    13.15351   18.71402    8.44302
       O    13.95029   19.29023    8.51155
      H1    14.58039   18.56243    8.42277
       H     4.37159   14.84516   18.78237
       O     4.86421   14.00249   18.70624
      H1     5.14381   14.00257   17.78292
       H     9.31228   17.80926   20.13015
       O     8.76688   18.40556   19.63727
      H1     9.01313   18.06915   18.76794
       H     9.85602   18.73456    8.95963
       O     9.37504   18.26388    9.66759
      H1    10.15259   17.79476   10.08733
       H    13.45332   12.63894   18.13241
       O    13.98600   12.16533   18.76980
      H1    14.33998   11.35763   18.29803
       H     6.15694   17.95562    8.79510
       O     6.90613   18.07055    8.27103
      H1     7.64304   18.03355    8.91516
       H    10.25200   15.96518   17.91032
       O    10.10010   15.02616   18.04265
      H1     9.38827   14.84787   17.39006
       H    16.12845   12.06269   17.15510
       O    16.65572   12.24976   16.32655
      H1    16.04655   12.90102   15.92219
       H     5.54205   14.51357   14.92982
       O     5.59391   14.10677   15.80550
      H1     6.48827   14.23160   16.15501
       H     3.83135   18.67292   17.09447
       O     3.27546   19.16009   17.70617
      H1     2.75059   19.77029   17.16604
       H    13.06430   18.81536   16.55723
       O    13.10268   17.92506   16.26978
      H1    14.03416   17.83792   16.03901
       H     6.65046   12.60535   10.44772
       O     6.51705   12.69376    9.46972
      H1     5.69155   13.24313    9.48305
       H     4.34426   14.65405    8.79769
       O     4.19717   14.55670    9.72843
      H1     3.33833   14.05417    9.84167
       H     2.59245   11.51538   16.66283
       O     3.42333   11.88020   16.30544
      H1     3.10289   12.55669   15.70059
       H    16.69471   18.58396   16.75223
       O    15.76370   18.76841   16.77543
      H1    15.57905   19.35735   16.06903
       H    11.34947   16.75355    9.21672
       O    11.81048   16.95621    8.39507
      H1    11.07812   16.71252    7.81862
       H    12.03840   13.07502   13.51973
       O    12.08577   12.14346   13.30478
      H1    13.06763   12.09136   13.01972
       H    13.97304   15.68022    7.20685
       O    13.93318   14.99666    7.92190
      H1    13.35553   15.54752    8.51659
       H     6.95701   14.69013   10.02514
       O     7.35180   15.54719   10.16698
      H1     8.10231   15.50379    9.51761
       H     4.44929   16.22189   10.19672
       O     5.03665   17.01406   10.28004
      H1     5.90800   16.65991   10.08826
       H     5.84344   10.87790   11.98356
       O     6.51602   10.15059   11.97999
      H1     6.74969   10.23281   12.91777
       H    13.82403   14.34605   15.94219
       O    14.75798   14.19727   15.57173
      H1    14.97717   15.17842   15.48892
       H    14.33549   16.51673   13.48545
       O    14.75141   16.77034   14.32346
      H1    15.33621   17.46453   13.93526
       H     5.26012   13.07550   11.98039
       O     6.08661   13.37497   12.37296
      H1     5.81491   14.38345   12.60408
       H    18.15148   17.64357   15.36427
       O    18.65624   18.18939   15.98757
      H1    18.92394   17.55438   16.70382
       H    11.13438   12.24113   10.09789
       O    11.02622   11.43124    9.58785
      H1    11.74723   11.50390    8.92698
       H     8.61845   13.87386   15.20387
       O     8.39478   13.94081   16.17805
      H1     8.70961   13.01858   16.37334

