180
frame 7 | Written by MDAnalysis XYZWriter (release 2.4.3)
       H    -1.55149   15.88867   -1.87811
       O    -1.93526   16.46397   -1.21248
      H1    -1.24884   17.08825   -0.93085
       H    -3.19074   14.78860    7.22067
       O    -3.29664   14.88701    6.23754
      H1    -2.37401   14.66921    5.91419
       H    -6.42995   14.88978    4.74553
       O    -5.89397   15.64600    4.88457
      H1    -6.36276   16.27513    4.39617
       H    -4.29959   18.08587   10.51868
       O    -4.83059   18.08725   11.37398
      H1    -4.75136   17.11324   11.60868
       H    -1.15294   10.96263    7.66521
       O    -1.81749   11.13506    8.40761
      H1    -1.28961   10.76813    9.13456
       H     1.96610   14.72329   -1.61555
       O     2.23180   15.63264   -1.41943
      H1     1.45355   16.11894   -1.78711
       H    -4.03441   13.16166    5.95797
       O    -4.40778   12.26103    6.08404
      H1    -4.90245   12.42332    6.91812
       H    -6.17974   16.88541    7.59578
       O    -5.20141   16.90589    7.77395
      H1    -5.01252   16.84118    6.84320
       H    -0.06270   18.49615   -0.77253
       O    -0.28955   18.13198    0.09360
      H1    -0.96460   18.73535    0.42827
       H    -4.39415   15.58693   12.98739
       O    -4.50854   15.42318   12.05841
      H1    -3.61312   15.39826   11.77519
       H     3.09774   14.20786    1.02935
       O     2.89783   13.45485    1.61988
      H1     3.65419   13.71004    2.17738
       H     5.82815   18.92405    3.19572
       O     4.91197   19.12403    3.32416
      H1     4.61508   19.16481    2.41148
       H    -6.76352   18.66821   -0.69795
       O    -6.22222   18.56250    0.15550
      H1    -6.35570   19.49585    0.49395
       H    -1.92804   10.30008    1.25010
       O    -2.34997   10.99779    1.84063
      H1    -2.30436   10.54437    2.67524
       H    -0.26191   12.97542    3.09677
       O    -0.27321   12.37776    3.94147
      H1    -1.10655   11.85128    3.90456
       H    -3.43619   15.44742   -0.31424
       O    -3.98290   14.72552    0.05783
      H1    -3.39059   13.96615    0.01268
       H    -2.93001   18.78242    1.49797
       O    -2.32046   19.49390    1.26126
      H1    -2.53168   19.78175    0.36829
       H     3.21344   16.88581   11.05090
       O     3.96388   17.38159   11.15916
      H1     4.68166   16.98099   10.57914
       H    -7.45631   15.18588   10.24476
       O    -6.84967   14.70309    9.63001
      H1    -6.06039   15.17741    9.78014
       H    -0.52110   15.82715    4.73173
       O    -0.47235   15.09614    5.30819
      H1    -0.45564   14.31715    4.73849
       H     0.62945    9.04888    6.84414
       O     0.23109    9.96484    6.71960
      H1     0.57158   10.16678    5.82406
       H    -1.08572   17.81906   11.95062
       O    -1.78788   17.39644   12.44536
      H1    -2.25978   18.13354   12.81560
       H    -6.07418   19.15834    5.03392
       O    -5.77280   19.58365    5.84084
      H1    -5.90390   18.90102    6.47858
       H     0.91583   18.79838    1.11333
       O     1.30454   19.12436    1.91374
      H1     2.23433   18.85643    1.71275
       H     3.85653   17.51296    0.88112
       O     3.75950   18.46451    0.91782
      H1     4.04593   18.61504    0.04232
       H    -3.64127   16.59663    5.14421
       O    -3.48604   17.43755    4.78964
      H1    -4.03434   17.55187    4.04517
       H     2.00322   14.59753   11.48729
       O     1.51119   15.44516   11.50758
      H1     0.68059   15.08390   11.93716
       H    -6.64213   13.25715    8.54184
       O    -6.14449   12.43618    8.35007
      H1    -5.54959   12.49485    9.07617
       H    -3.61579   12.86144   10.12431
       O    -4.11990   12.49234   10.85426
      H1    -4.45521   13.32728   11.22360
       H    -1.98851   12.71734    8.65714
       O    -2.26045   13.65278    8.92431
      H1    -1.46052   14.15963    8.70546
       H    -4.21465   18.14790    8.62197
       O    -3.38014   18.50173    9.09150
      H1    -3.47279   19.44059    8.92204
       H    -8.53738   16.81137    8.18284
       O    -7.86357   17.11187    7.52771
      H1    -7.80365   18.06620    7.64779
       H     5.16931   14.93569    5.63574
       O     5.07904   15.55590    6.45592
      H1     4.16376   15.85099    6.36523
       H    -5.77672   12.10099    4.85494
       O    -6.54804   12.00347    4.30056
      H1    -7.19786   12.33094    4.83540
       H    -9.02792   15.41415    2.82819
       O    -8.38268   14.73288    2.55810
      H1    -7.87942   15.19458    1.82460
       H    -4.38382   18.77126   -0.74057
       O    -3.48715   18.76188   -1.14717
      H1    -3.28871   17.80255   -1.02014
       H     2.17244   11.54021   10.64592
       O     1.62364   12.32717   10.42312
      H1     0.77243   11.92642   10.22641
       H     3.55040   15.67413   -0.20095
       O     4.13349   15.62528    0.60127
      H1     4.88206   15.16459    0.19510
       H     0.55541   18.24830    9.94802
       O     0.56811   17.90440   10.90653
      H1     0.90683   16.99804   10.66365
       H    -1.31641   14.53195   11.19844
       O    -1.14761   14.85223   12.05086
      H1    -1.31848   15.81965   11.93928
       H    -0.31096   16.65018    7.79636
       O    -0.73508   15.85318    8.03764
      H1    -0.57545   15.30295    7.20881
       H    -7.62091   14.55079    6.30148
       O    -8.37357   13.95618    6.08171
      H1    -8.85908   14.54791    5.50530
       H     2.41791   17.80993    5.98068
       O     2.60856   16.89626    6.21866
      H1     1.94925   16.70779    6.93101
       H     1.62619   19.13021    8.45798
       O     0.76371   18.66935    8.29556
      H1     0.23691   19.26542    7.73329
       H     4.67539   14.13737    7.86976
       O     4.59949   13.90464    8.83710
      H1     3.94689   13.19407    8.87325
       H    -1.84204   18.67776    7.25917
       O    -1.33451   18.77757    6.37975
      H1    -1.92028   18.46417    5.63329
       H    -1.94546   12.27504    0.60628
       O    -1.79290   13.04069   -0.03759
      H1    -1.04133   13.42751    0.44231
       H    -0.41399   18.29765   -3.09286
       O     0.26368   18.77522   -2.51326
      H1     0.79835   19.28324   -3.16207
       H    -4.96945   17.74580    1.14903
       O    -4.37948   17.45556    1.81225
      H1    -4.18814   16.52509    1.63791
       H     3.91903   16.13658    4.03243
       O     4.23617   15.30233    3.75131
      H1     5.09688   15.51445    3.36496
       H    -2.00900   19.53354   15.41063
       O    -2.66497   19.10117   14.83130
      H1    -2.61491   19.69265   14.02350
       H     0.96264   19.23257    3.81071
       O     0.98889   19.32310    4.73325
      H1     0.30895   18.76747    5.12219
       H     5.13400   15.51507    9.21030
       O     5.69115   16.30504    9.48294
      H1     6.51137   15.75388    9.54379
       H   -10.50346   17.83640    3.89129
       O    -9.54678   17.91331    4.14656
      H1    -9.45514   17.13677    4.81958
       H     0.19634    9.38595    3.58793
       O     0.93968    9.86112    4.03430
      H1     0.55667   10.74283    4.12758
       H    -7.40658   18.77414   11.98421
       O    -7.17640   19.51912   11.41138
      H1    -6.23986   19.29849   11.24235
       H    -3.24712   10.97385    5.26020
       O    -2.52755   10.62018    4.68204
      H1    -2.46053    9.68707    4.87187
       H     0.11059   15.18859    1.79918
       O     0.22692   14.24755    1.61601
      H1     1.19845   14.11122    1.53259
       H    -0.69802   17.76366    2.85646
       O    -0.90016   16.90915    3.29990
      H1    -1.78401   17.03119    3.73302
       H    -6.49991   18.28970    2.63129
       O    -6.90343   18.17817    3.52327
      H1    -7.85083   18.28929    3.34155

