180
frame 2 | Written by MDAnalysis XYZWriter (release 2.4.3)
       H   -18.71949   -8.24922  -14.08446
       O   -18.42382   -7.48770  -13.52101
      H1   -17.74719   -7.01448  -14.00358
       H   -10.75386   -5.83236  -19.49693
       O   -11.08245   -6.57651  -19.01913
      H1   -11.00471   -7.26137  -19.66804
       H   -14.58967  -13.08180   -8.24839
       O   -15.37491  -13.34556   -7.73016
      H1   -15.55385  -14.26827   -7.81565
       H   -12.48923  -15.06866  -13.53864
       O   -11.97247  -15.37571  -14.34657
      H1   -12.34579  -16.30598  -14.40029
       H   -17.19128   -3.75196  -14.90789
       O   -16.41908   -3.86499  -15.51116
      H1   -16.75366   -3.69753  -16.37922
       H   -11.53325   -8.92010  -11.04138
       O   -11.98365   -9.47536  -11.69235
      H1   -12.23111  -10.24748  -11.14858
       H   -10.15594   -7.91258   -9.58480
       O   -11.10800   -7.72160   -9.84417
      H1   -11.15198   -6.79580  -10.14152
       H    -8.21402  -11.64093  -13.63476
       O    -8.03045  -12.36411  -14.29449
      H1    -7.82797  -11.91531  -15.12704
       H    -9.90007   -9.28512  -15.68756
       O    -9.31641   -8.64952  -15.43676
      H1    -8.77146   -9.01870  -14.73195
       H    -8.76151   -5.69019  -12.23451
       O    -9.26533   -5.96162  -13.00306
      H1    -9.45518   -5.12249  -13.53042
       H   -11.21998   -5.96153  -12.28395
       O   -11.80069   -5.66581  -11.54337
      H1   -12.58504   -6.15104  -11.75042
       H   -12.62069  -12.44833   -9.16465
       O   -13.21394  -13.14437   -9.37319
      H1   -12.55944  -13.90329   -9.22929
       H    -8.95224   -4.44601  -10.57578
       O    -8.02581   -4.66814  -10.71377
      H1    -7.63858   -3.80315  -10.52516
       H   -11.82202  -11.26709  -18.72221
       O   -12.54574  -11.27402  -19.35273
      H1   -13.12717  -10.53015  -19.13581
       H    -9.75979   -6.95498   -7.74273
       O    -9.58210   -6.19419   -7.18659
      H1    -9.61109   -6.63204   -6.28321
       H   -16.77206   -7.71647   -9.54332
       O   -16.48060   -8.06701  -10.39835
      H1   -16.03535   -8.90744  -10.06962
       H   -17.80897   -7.06146  -18.24904
       O   -17.74909   -6.55679  -17.43298
      H1   -17.24272   -7.15763  -16.83379
       H   -10.59986  -11.38033  -17.07347
       O   -10.52923  -10.49030  -17.48966
      H1    -9.60539  -10.52070  -17.80926
       H   -11.00662   -3.26668   -9.66431
       O   -10.54783   -3.35685  -10.57003
      H1   -11.17244   -4.01248  -10.95237
       H    -6.81802  -10.43021  -13.78777
       O    -7.34091   -9.87544  -13.18760
      H1    -6.76774   -9.07913  -13.02276
       H   -15.90219  -12.81222  -13.70549
       O   -15.85940  -13.22356  -12.84520
      H1   -15.11071  -13.84954  -12.96092
       H   -16.54454  -13.20747  -15.87203
       O   -15.56444  -13.38422  -15.78063
      H1   -15.73105  -14.40975  -15.69400
       H   -10.70663   -3.40898  -14.01965
       O    -9.79160   -3.62701  -14.23965
      H1    -9.58472   -3.39896  -15.14108
       H   -14.22055  -12.35161  -16.13611
       O   -13.46026  -11.85437  -16.49404
      H1   -13.04944  -11.45739  -15.70478
       H   -10.51655  -12.00562  -12.62940
       O   -10.41826  -11.30673  -13.32964
      H1   -10.74053  -10.49738  -12.83395
       H   -16.12766   -9.18144  -12.75787
       O   -15.35498   -8.74509  -13.05786
      H1   -15.02798   -8.33920  -12.25130
       H   -14.90938  -10.77541   -9.86835
       O   -15.38311  -10.19997   -9.26166
      H1   -14.76300   -9.77718   -8.59964
       H   -12.39760  -10.56888   -7.67794
       O   -11.93486  -10.86324   -8.49116
      H1   -11.12680  -10.38499   -8.30653
       H   -17.97234  -11.52439  -19.12674
       O   -17.31516  -11.21079  -18.50401
      H1   -17.62364  -11.61763  -17.69220
       H   -14.94232  -11.67030  -12.29151
       O   -14.30131  -10.98599  -11.96554
      H1   -14.73449  -10.20765  -12.35309
       H    -9.53978  -12.74557  -15.27601
       O    -9.96155  -13.00854  -16.11177
      H1   -10.78570  -13.41739  -15.84847
       H   -17.69859   -9.61405   -9.72208
       O   -18.55460  -10.01918   -9.86099
      H1   -19.14576   -9.30413   -9.62812
       H   -12.75031   -9.26437  -13.77668
       O   -12.45229   -9.05069  -14.65700
      H1   -11.51354   -9.24230  -14.60463
       H   -13.45209  -13.83040  -11.26137
       O   -13.35421  -14.53125  -11.99267
      H1   -13.34729  -15.34480  -11.51549
       H   -17.00385   -9.36059  -19.50286
       O   -17.13695   -8.40297  -19.64884
      H1   -16.29763   -8.05261  -19.38652
       H    -8.13614  -10.71194  -11.46520
       O    -8.39458  -11.25789  -10.68194
      H1    -7.65367  -11.87283  -10.64207
       H   -15.52257   -2.99001  -13.25696
       O   -15.42852   -3.91726  -12.99333
      H1   -14.89985   -4.36586  -13.68912
       H    -9.50080   -7.05281  -18.08526
       O    -8.60139   -7.45358  -17.94725
      H1    -8.81100   -7.75022  -17.01756
       H   -14.34734   -9.16106  -17.62158
       O   -14.48707   -9.95561  -18.11601
      H1   -14.08496  -10.66269  -17.58947
       H    -6.14859  -10.54665  -16.41658
       O    -6.81920  -11.32137  -16.35147
      H1    -7.19031  -11.46962  -17.21025
       H    -8.51753   -9.44180   -9.68959
       O    -8.50938   -8.47110   -9.77658
      H1    -7.53324   -8.32329   -9.77286
       H    -9.41369  -12.67851  -11.05164
       O   -10.00387  -13.37056  -11.36350
      H1    -9.35259  -13.96478  -11.72121
       H    -8.31523   -9.26560  -18.83944
       O    -8.33276  -10.20595  -18.90311
      H1    -7.39135  -10.31279  -19.28057
       H   -17.95041  -11.37383  -12.34893
       O   -17.53588  -10.53744  -12.37662
      H1   -18.20527   -9.96064  -11.94646
       H   -16.38861   -8.73205  -16.08221
       O   -17.02955   -9.41801  -16.31067
      H1   -16.57076   -9.87056  -17.04587
       H   -12.98673   -4.06710  -12.85176
       O   -12.52082   -3.56569  -13.51536
      H1   -12.49979   -4.22906  -14.23463
       H   -17.10821  -14.35664  -12.06717
       O   -17.65261  -14.97832  -11.52414
      H1   -17.67772  -14.40526  -10.69318
       H   -13.13236   -8.07476   -7.20067
       O   -13.31315   -8.28765   -8.13824
      H1   -12.38913   -8.22619   -8.49963
       H   -15.43336   -6.31447  -15.18496
       O   -16.05631   -7.10120  -15.15466
      H1   -15.64407   -7.58490  -14.44631
       H   -13.00716  -13.54697  -16.87686
       O   -12.61029  -14.47563  -16.84057
      H1   -12.89434  -14.82909  -15.94451
       H   -15.79613   -6.58976  -17.98882
       O   -15.37393   -6.62669  -18.83348
      H1   -14.41174   -6.90705  -18.66243
       H   -14.06853  -12.30752  -19.15353
       O   -14.83982  -12.94539  -19.38079
      H1   -15.64197  -12.43531  -19.03834
       H   -13.63504   -4.74976  -15.77662
       O   -13.92711   -5.35662  -15.06355
      H1   -13.51385   -6.19417  -15.44805
       H   -14.16693   -5.56084   -9.76094
       O   -13.58177   -5.45737   -8.97303
      H1   -13.34294   -6.39639   -8.70731
       H   -12.73146   -5.06936  -17.90233
       O   -12.56854   -4.42845  -17.22824
      H1   -12.78749   -3.63821  -17.76145
       H   -15.67314   -6.56255  -11.00667
       O   -14.88159   -6.09045  -11.32683
      H1   -15.26575   -5.42774  -11.87742
       H    -9.79460  -14.49784   -8.19573
       O   -10.46919  -14.41825   -8.86583
      H1   -10.00550  -14.01165   -9.61180
       H   -12.64981   -7.89483  -16.24355
       O   -12.92577   -7.28694  -16.96471
      H1   -12.04313   -7.10784  -17.22367
       H   -19.89603   -5.65464  -11.58169
       O   -19.22973   -6.10957  -11.00254
      H1   -18.88403   -6.82872  -11.49513
       H    -7.34810   -6.77088  -14.53370
       O    -6.73689   -6.12789  -14.99664
      H1    -6.05774   -6.72253  -15.32812

