180
frame 7 | Written by MDAnalysis XYZWriter (release 2.4.3)
       H    13.56145  -18.54668   -3.95981
       O    13.16136  -18.14389   -4.73876
      H1    13.17710  -18.83141   -5.42765
       H    11.67736  -13.84029   -4.18580
       O    10.73325  -13.75841   -4.34225
      H1    10.71619  -12.90807   -4.87813
       H    13.08219  -14.53122   -1.40753
       O    12.79241  -15.34110   -1.01421
      H1    12.12333  -15.67718   -1.65868
       H     4.07356  -16.90870   -2.31380
       O     4.80542  -17.33332   -1.78021
      H1     4.35720  -17.31859   -0.94022
       H     7.68194  -18.67153  -10.80867
       O     6.90563  -18.43224  -11.42272
      H1     7.33306  -18.51000  -12.30267
       H     3.40627  -13.86828   -0.81889
       O     3.32122  -13.52298   -1.68377
      H1     4.27033  -13.28783   -1.86556
       H    12.90096  -15.12522   -9.86392
       O    12.09411  -15.28097  -10.32153
      H1    12.22777  -16.13332  -10.80033
       H    13.00949  -11.37119   -6.93970
       O    12.85732  -12.31664   -6.99292
      H1    13.22223  -12.73237   -6.19553
       H     0.33658  -16.78609  -10.47766
       O     1.07098  -17.15593  -10.00512
      H1     1.05651  -16.48648   -9.21027
       H    10.53115  -16.35998   -3.49470
       O    11.31341  -16.60599   -2.88038
      H1    11.89841  -17.10768   -3.44069
       H     3.21047  -17.81135   -8.19270
       O     3.89930  -17.18010   -8.59139
      H1     4.15634  -17.82488   -9.30741
       H     2.55779  -19.69347   -8.04877
       O     2.16055  -18.94951   -7.62273
      H1     1.38241  -19.22802   -7.18814
       H     3.78388  -16.48622  -11.12233
       O     3.05641  -16.62210  -11.79523
      H1     2.32339  -16.53440  -11.15570
       H    11.48231  -16.85096   -7.87630
       O    10.97944  -16.01899   -7.67118
      H1    10.05829  -16.39388   -7.64216
       H     2.93264  -19.62387   -4.10954
       O     2.06051  -19.28729   -4.34816
      H1     2.01184  -19.24400   -5.33237
       H     2.84837  -14.81559  -12.11692
       O     2.56589  -13.90398  -12.35167
      H1     2.13793  -14.00563  -13.20683
       H     8.53511  -15.80497   -4.10362
       O     9.35964  -16.09223   -4.46619
      H1     9.67191  -15.23285   -4.84234
       H     8.08626  -16.43278   -7.00923
       O     8.67983  -17.17488   -6.93139
      H1     9.05418  -16.89193   -6.04984
       H     8.17964  -17.43304  -14.09841
       O     7.43827  -17.85667  -14.54209
      H1     7.98506  -18.48948  -15.04169
       H     8.39386  -12.11244   -6.44085
       O     7.44731  -12.35361   -6.52257
      H1     7.22546  -11.75074   -7.25802
       H    10.14888  -10.28842  -10.55433
       O    10.89021  -10.81489  -10.14546
      H1    11.22154  -11.44327  -10.87532
       H     2.84408  -13.55504   -8.31566
       O     2.52309  -12.74093   -7.87983
      H1     3.22126  -12.61717   -7.23397
       H     6.82619  -15.71053   -2.63392
       O     7.04521  -15.12104   -3.39328
      H1     6.42646  -15.40193   -4.13800
       H     8.87595  -17.16680  -10.26335
       O     9.20051  -16.33208  -10.61349
      H1     9.93437  -16.17776  -10.03959
       H     2.53003  -17.46541   -4.12975
       O     3.27971  -16.83440   -4.03033
      H1     3.10152  -16.06051   -4.60571
       H     7.94306  -17.04847   -1.26947
       O     7.16518  -16.47395   -0.93677
      H1     6.42490  -16.95451   -1.34624
       H    10.21075  -17.07390  -12.78560
       O     9.94593  -17.22824  -13.69818
      H1    10.42114  -16.47620  -14.08663
       H     1.04891  -14.28094   -7.69531
       O     0.97608  -15.25099   -7.84878
      H1     0.15184  -15.45079   -7.41274
       H     6.36693  -15.65947  -10.38497
       O     5.69079  -15.90937  -11.04208
      H1     6.09818  -16.75407  -11.29130
       H    10.11950  -12.37018   -6.85213
       O     9.94021  -11.59071   -6.25388
      H1    10.58766  -10.98323   -6.59454
       H    13.89290  -13.66069   -4.38819
       O    13.22207  -13.64807   -3.64834
      H1    13.25521  -12.83453   -3.12276
       H     6.97866  -14.30919   -8.48097
       O     7.00264  -15.32649   -8.36645
      H1     6.20041  -15.43921   -7.77347
       H     6.73085  -18.07042   -6.83975
       O     5.81272  -18.07224   -6.62060
      H1     5.40919  -17.81345   -7.45085
       H     9.75857  -18.88731   -9.58853
       O     8.81349  -18.78537   -9.35695
      H1     8.84275  -18.41503   -8.47323
       H     2.94640  -11.34657   -5.53869
       O     3.81684  -11.27123   -6.01733
      H1     4.43906  -11.17711   -5.30224
       H     2.34766  -14.29918   -5.23211
       O     2.85243  -14.85034   -5.88668
      H1     2.10757  -15.15782   -6.41118
       H     9.33276  -13.47509  -15.49362
       O     9.38369  -14.25624  -14.90570
      H1     8.87761  -13.90115  -14.12321
       H     9.51673   -9.25550   -4.36177
       O     8.98660   -9.86746   -3.85798
      H1     9.06437  -10.75287   -4.30637
       H     9.52863  -13.30744   -2.85409
       O     9.12572  -13.01838   -2.04539
      H1     8.18271  -13.17702   -2.22717
       H     5.81813  -15.36253  -13.02527
       O     5.96319  -14.93680  -13.90871
      H1     5.45758  -14.13351  -13.80054
       H    14.70717  -15.28811   -5.63896
       O    14.65019  -14.35423   -5.78444
      H1    15.52427  -14.08480   -5.46161
       H    10.88032  -12.83091   -9.03073
       O    10.13965  -13.30888   -8.59767
      H1    10.57266  -14.14400   -8.32431
       H     7.45230  -11.51570  -12.57126
       O     8.30454  -12.01887  -12.71622
      H1     8.27119  -12.58611  -11.85758
       H    15.26650  -16.35788   -9.51357
       O    15.86735  -16.74120  -10.15438
      H1    15.75882  -16.07843  -10.91650
       H    10.00422  -12.46174  -12.20898
       O    10.97127  -12.50937  -12.34171
      H1    11.14394  -13.46005  -12.15881
       H     8.64228  -14.21102    0.64634
       O     9.49934  -14.56018    0.31401
      H1     9.38274  -14.28744   -0.62348
       H    13.63611  -13.77146   -8.28608
       O    14.25170  -14.28266   -8.85144
      H1    14.89564  -14.37672   -8.11801
       H     5.91103  -13.32528   -4.08545
       O     5.80392  -12.37739   -4.31101
      H1     6.53317  -12.34106   -5.01189
       H     4.47893  -10.32331   -9.61228
       O     4.21124  -10.14735   -8.69350
      H1     3.80934  -10.95116   -8.42655
       H     5.37382  -16.42644   -5.67264
       O     5.56139  -15.47411   -5.45780
      H1     4.71708  -14.91671   -5.53312
       H     4.18132  -14.26780   -9.15183
       O     3.44164  -14.72703   -9.48633
      H1     3.51315  -15.54803   -8.99724
       H     7.26624   -9.97822   -9.18878
       O     6.77250  -10.41805   -8.44632
      H1     5.89403  -10.00237   -8.58255
       H     6.94782   -9.45769   -6.53717
       O     7.01184   -9.02913   -5.70487
      H1     7.59763   -9.53669   -5.11436
       H    16.04287  -16.68201   -4.56449
       O    15.64881  -16.93598   -5.44142
      H1    14.78733  -17.32654   -5.14414
       H     9.05647  -13.46299   -9.96898
       O     8.36228  -13.69912  -10.64687
      H1     8.51740  -14.67657  -10.72463
       H     4.87682  -20.25769   -2.99833
       O     4.72919  -19.68746   -3.75422
      H1     4.86983  -18.83429   -3.25434
       H    12.59946  -17.96996  -12.56460
       O    12.16572  -17.96781  -11.64102
      H1    12.70234  -18.66721  -11.22037
       H     6.56798  -13.18754  -10.18309
       O     5.71502  -12.95343   -9.75467
      H1     6.02751  -12.21754   -9.21438
       H     4.83709  -11.06402  -12.11465
       O     5.13786  -10.80924  -11.22507
      H1     5.21295  -11.73057  -10.85104
       H     9.23384  -18.56077   -1.52645
       O     9.39720  -17.71300   -1.09360
      H1    10.10151  -17.38849   -1.72554

