180
frame 12 | Written by MDAnalysis XYZWriter (release 2.4.3)
       H    16.90938  -17.07071    1.27581
       O    16.72076  -16.61176    2.11856
      H1    17.42647  -16.78379    2.65960
       H    16.51236  -17.82062   -2.66008
       O    16.65547  -16.89678   -2.93196
      H1    17.58922  -16.77371   -3.05525
       H    12.90003  -14.77339   -2.63312
       O    12.66795  -15.23347   -1.78619
      H1    12.35414  -16.07073   -2.18024
       H    12.03198   -5.10154    1.98918
       O    12.26901   -5.54940    2.80757
      H1    11.42633   -5.71408    3.18097
       H    12.55446   -8.43200   -5.78611
       O    13.14108   -9.07400   -5.38881
      H1    13.33098   -8.67554   -4.56220
       H    17.77949  -12.34891    6.23038
       O    17.37347  -13.03643    5.64320
      H1    16.42676  -12.98266    5.87885
       H    11.88769  -13.31658    2.62483
       O    11.06749  -13.71682    2.98558
      H1    10.63122  -12.83585    3.02182
       H    13.51379   -5.18127   -2.46556
       O    13.23692   -4.85178   -3.31602
      H1    12.64360   -5.65540   -3.44743
       H    18.59601  -11.45508   -2.43191
       O    18.19971  -11.88288   -3.21368
      H1    18.14750  -11.15067   -3.88783
       H    18.66802  -15.42735    6.54284
       O    17.86170  -15.52449    6.05878
      H1    17.58612  -14.64172    5.79353
       H    13.64688  -10.77055   -1.72086
       O    13.21651  -10.90097   -2.60396
      H1    12.35685  -11.14973   -2.30645
       H    14.68602   -5.80467   -0.46455
       O    14.07294   -5.00943   -0.76798
      H1    14.71443   -4.26671   -0.79985
       H    14.87855   -7.60116   -2.68767
       O    15.25644   -7.77795   -3.58046
      H1    15.50796   -6.84622   -3.81210
       H    11.90842   -8.02205   -1.11084
       O    12.48047   -8.15351   -1.83981
      H1    12.53815   -9.10796   -1.82268
       H    12.27446   -4.60092   -0.56028
       O    11.58016   -4.85583    0.09617
      H1    11.06458   -4.02427    0.22499
       H    14.41593   -3.05339    3.01384
       O    14.10874   -2.36550    2.41070
      H1    13.89768   -2.81859    1.60345
       H    17.13049   -2.02720    2.69409
       O    16.89809   -2.89418    2.99325
      H1    17.01468   -3.43827    2.19247
       H    18.81570   -7.74104   -0.71677
       O    18.17583   -8.09997   -1.35148
      H1    18.59364   -7.82487   -2.20308
       H    16.34328  -14.28560    0.08848
       O    16.59266  -13.47803    0.61061
      H1    16.82133  -13.92897    1.45267
       H    16.33759   -7.29745   -6.89565
       O    17.16417   -7.14248   -6.38149
      H1    17.05588   -7.88308   -5.76068
       H    16.80005   -3.39292   -0.56490
       O    17.39319   -3.36783    0.19354
      H1    17.54994   -2.41766    0.21662
       H    13.48503   -8.19944    7.15794
       O    14.13717   -8.88604    6.88526
      H1    13.72238   -9.71287    7.13328
       H    17.23907  -13.23151   -5.57998
       O    16.82223  -12.58682   -6.17149
      H1    17.18936  -12.82162   -7.02808
       H    17.90800  -15.79061   -5.58244
       O    17.24477  -15.19242   -5.18074
      H1    17.07558  -15.54787   -4.29518
       H    13.38842  -14.09743    1.52149
       O    13.52864  -13.17214    1.42526
      H1    14.41864  -13.08880    1.09407
       H    18.59371   -3.19303    5.41783
       O    18.72782   -3.81557    4.72479
      H1    18.04103   -3.47501    4.13426
       H    15.71641   -5.37580    2.75417
       O    16.49408   -5.59325    2.20241
      H1    17.25173   -5.29654    2.66305
       H    16.47465   -7.81797   -0.83728
       O    15.66542   -7.37632   -0.48693
      H1    15.03634   -8.10962   -0.46149
       H    13.86675  -13.61568   -4.63033
       O    13.30096  -13.72017   -3.80180
      H1    13.54443  -12.88065   -3.35571
       H     9.03970   -9.91140    5.98446
       O     9.31294  -10.61049    5.40696
      H1    10.23165  -10.43960    5.15084
       H     9.89494  -10.54028    1.68282
       O    10.78252  -10.93152    1.87571
      H1    11.06164  -11.11127    0.97253
       H    17.20404   -7.86581    6.39115
       O    17.89893   -7.98832    7.08556
      H1    18.66024   -7.48417    6.76832
       H    14.52858   -9.26511    3.35389
       O    15.47063   -9.14780    3.66078
      H1    15.87452   -8.76647    2.91793
       H    13.56408  -13.09756    4.97393
       O    13.89293  -13.69813    4.24141
      H1    13.77100  -13.21227    3.45741
       H    12.51661   -9.08772    5.00530
       O    11.64207   -9.25020    4.58414
      H1    11.93683   -9.23870    3.63530
       H    19.79439  -10.27006   -1.50512
       O    19.29278  -10.97592   -1.02011
      H1    18.57178  -10.43880   -0.55897
       H    10.92429   -6.39391   -4.00097
       O    11.84037   -6.81192   -4.04060
      H1    11.88835   -7.34346   -3.18135
       H    13.02944  -15.46110    5.43313
       O    12.30985  -15.94047    5.79609
      H1    11.57256  -15.33960    5.66589
       H    15.66663  -16.05566   -1.78829
       O    15.22255  -15.70659   -0.97133
      H1    14.39352  -15.43501   -1.37429
       H    10.90198  -14.38570   -1.35843
       O    10.03966  -14.33015   -0.91895
      H1     9.51915  -14.35209   -1.71062
       H    17.10720   -8.05751    1.19027
       O    17.40474   -8.06182    2.11120
      H1    17.19039   -7.12739    2.31907
       H    16.49830   -9.82481   -5.47557
       O    17.18172   -9.51039   -4.80819
      H1    16.69818   -8.74309   -4.44444
       H    15.50759   -7.70852    9.11981
       O    16.44351   -7.47382    9.18260
      H1    16.77255   -7.66380    8.29421
       H    17.34429  -11.45974    8.91625
       O    16.69188  -11.56984    9.62182
      H1    16.82814  -10.79503   10.13636
       H    10.30402  -11.41558   -1.65122
       O    11.02322  -11.71822   -1.08055
      H1    10.83883  -12.65894   -0.95524
       H    13.75991  -11.96654    7.68070
       O    13.34888  -11.73728    6.83911
      H1    12.45398  -12.14220    6.97094
       H    18.62855  -13.52795   -0.28094
       O    19.53292  -13.82255   -0.18016
      H1    19.58091  -13.80610    0.80497
       H    11.64218   -6.69717    0.60463
       O    11.36128   -7.65627    0.66989
      H1    10.58317   -7.64054    1.24427
       H    18.14322  -11.25517   -6.43525
       O    19.01654  -10.77889   -6.55352
      H1    18.80548   -9.97098   -6.03688
       H    14.52916  -17.45159    1.45004
       O    13.82824  -17.29226    0.81429
      H1    14.21034  -16.83759    0.00545
       H    18.45173   -9.83077    7.54715
       O    18.37732  -10.79391    7.42292
      H1    19.03986  -11.18772    7.99140
       H    13.90087   -9.94938    0.29213
       O    14.46926   -9.89177   -0.47875
      H1    15.27460  -10.28508   -0.15192
       H    18.77757  -10.43618    4.38646
       O    19.69032  -10.38363    4.12395
      H1    20.05527  -10.52713    5.04023
       H    12.58398   -8.47450    1.66005
       O    13.02513   -9.31836    2.03154
      H1    12.28447   -9.89183    1.84979
       H    14.94665   -5.54051    4.80149
       O    14.56967   -4.75099    4.31906
      H1    13.74591   -5.15899    3.97785
       H    17.13664  -11.57466    0.51741
       O    16.92350  -10.58034    0.68775
      H1    17.20521  -10.44874    1.60041
       H    18.81117  -17.76223    4.03771
       O    18.90199  -16.83669    3.85541
      H1    18.63819  -16.40483    4.68899
       H    17.40030  -13.64832    3.89328
       O    17.53834  -14.03789    3.01148
      H1    17.10020  -14.89202    3.05198
       H    15.61430   -7.80035    4.81039
       O    15.63981   -7.01443    5.43926
      H1    15.38060   -7.41493    6.29079
       H     8.54545   -7.00989    3.20228
       O     9.47562   -6.87460    2.93483
      H1     9.87716   -7.62120    3.35941

