180
frame 11 | Written by MDAnalysis XYZWriter (release 2.4.3)
       H   -13.70144    8.58133   15.45888
       O   -13.17905    7.89974   15.97908
      H1   -13.02260    8.40850   16.79544
       H    -6.52580    3.99665   12.59892
       O    -5.92567    4.73464   12.90249
      H1    -5.97800    4.52624   13.89051
       H   -16.49824    7.60687    9.78508
       O   -16.63276    7.86425   10.72104
      H1   -17.15528    8.70922   10.65200
       H    -7.20492    6.20182   18.38970
       O    -6.96576    5.81210   19.19976
      H1    -6.02458    5.98983   19.16683
       H   -12.55502   11.51206   19.38486
       O   -12.92402   11.05379   18.64584
      H1   -13.85928   11.23334   18.81161
       H   -11.66568    7.31735   14.87272
       O   -11.12209    7.03697   14.09604
      H1   -10.24624    7.27529   14.38069
       H   -13.18996    7.69347   11.57842
       O   -14.00104    7.72120   12.11836
      H1   -14.63868    7.79426   11.36722
       H   -16.18448    1.26359   10.94270
       O   -16.31893    2.17913   10.72594
      H1   -15.42515    2.54508   10.82103
       H   -12.73933   10.99129   13.82598
       O   -12.07020   11.46618   13.35271
      H1   -11.42277   11.79113   13.94597
       H   -12.05808    4.30922   14.41599
       O   -11.08718    4.44288   14.25098
      H1   -11.04427    5.39929   14.42356
       H   -10.94335    6.37556   18.58592
       O   -10.98950    5.84945   19.39399
      H1   -11.50095    5.08039   19.19666
       H    -9.93489    1.64704   16.75203
       O    -9.86022    2.56821   16.93669
      H1    -9.26416    2.57882   17.72760
       H   -14.93341    9.75264   14.38446
       O   -13.97040    9.77991   14.11512
      H1   -14.02082    8.98990   13.43106
       H    -8.67417    9.20648   10.17042
       O    -8.28287    9.36146   10.96170
      H1    -9.08433    9.13928   11.49434
       H   -13.92439    3.72412   15.48981
       O   -14.43007    4.45354   15.17056
      H1   -14.37781    5.13992   15.85738
       H   -19.16800    4.12736   15.76460
       O   -18.22794    4.00922   15.67874
      H1   -17.90271    4.91147   15.62581
       H    -8.96062    4.84921    8.80058
       O    -8.64089    5.55727    9.40526
      H1    -9.39762    5.63010   10.03327
       H    -8.50260    3.11498   15.93692
       O    -7.71887    3.42492   15.44232
      H1    -7.02842    2.78389   15.62089
       H    -9.54525   12.56926   13.49025
       O    -9.87140   13.21438   14.14167
      H1   -10.10942   12.53950   14.79817
       H   -11.32033    2.57066   11.35310
       O   -10.85241    3.28617   10.90761
      H1   -11.31530    3.37232   10.07513
       H    -6.03278   10.85821   14.84375
       O    -5.80722   10.12488   15.51257
      H1    -5.84189    9.38101   14.87449
       H    -8.27465    7.25579   13.58004
       O    -8.59889    7.56119   14.45590
      H1    -7.99826    7.00746   14.99282
       H   -16.20109   10.94936   14.24580
       O   -16.30644   10.39406   15.04384
      H1   -16.87955    9.63418   14.84882
       H   -13.24040    9.21554   18.95238
       O   -13.16783    8.27847   18.91110
      H1   -13.80309    8.03896   19.57421
       H   -10.47362   11.18694    8.45668
       O   -10.75657   10.31251    8.73184
      H1   -10.92577    9.83669    7.89007
       H    -9.91480   10.90887   16.44873
       O    -9.99335   10.87309   15.46572
      H1    -9.17146   10.33210   15.33688
       H    -6.86886    9.99766   19.30078
       O    -6.44905    9.55303   18.46850
      H1    -6.80553   10.16138   17.83112
       H   -11.64136    7.26678    9.88518
       O   -12.07833    8.11817    9.75771
      H1   -11.40942    8.78149    9.58270
       H   -16.98092    3.65862   12.55400
       O   -17.85148    3.44595   12.89497
      H1   -17.91295    3.79683   13.83362
       H   -11.13764    6.50423   12.20831
       O   -10.82492    6.01527   11.40999
      H1   -10.97793    5.09473   11.77274
       H    -8.38385   11.24269   11.54006
       O    -8.37773   11.92589   12.25628
      H1    -8.61388   12.77518   11.81178
       H    -8.10213    3.40807   12.95448
       O    -7.71586    3.05387   12.14199
      H1    -8.49978    3.18531   11.53382
       H   -13.09497    7.24236    8.35783
       O   -13.44786    6.48817    7.86555
      H1   -13.10088    6.75371    6.95122
       H   -13.41860   12.51071   17.71279
       O   -13.91843   13.25117   17.33910
      H1   -13.89863   13.86733   18.06021
       H   -11.84312   12.35959   11.79101
       O   -12.30033   12.74388   11.01080
      H1   -12.89806   12.06614   10.72323
       H   -16.60263    6.32194   14.08804
       O   -16.90084    6.52878   14.96076
      H1   -16.12556    6.49536   15.53703
       H    -6.92177   12.86082   14.66037
       O    -6.37960   12.31029   14.06088
      H1    -7.05027   12.18976   13.31838
       H   -13.51322    3.55683   10.17884
       O   -13.97123    3.35175   11.02865
      H1   -14.47667    4.16910   11.15050
       H    -7.74373    7.38975    7.33405
       O    -8.07822    7.85959    8.09759
      H1    -8.32515    7.12586    8.68939
       H   -16.39713   10.45551   19.85209
       O   -15.84516   10.14111   19.12066
      H1   -16.15941    9.22908   19.26326
       H    -6.41126    6.23838   16.15508
       O    -7.27500    6.01130   16.51004
      H1    -7.38764    5.07421   16.43652
       H    -8.27291    2.68040   19.59240
       O    -7.88047    2.94937   18.78728
      H1    -7.86134    3.90673   18.91782
       H   -14.84436    6.19480   12.75797
       O   -15.33471    5.33815   12.82717
      H1   -15.09844    5.05108   13.73594
       H    -4.39342    7.06920   15.03957
       O    -5.14049    7.20564   14.41889
      H1    -4.79598    6.83379   13.55702
       H   -16.25418   12.32606   12.69553
       O   -16.85695   12.51501   13.44683
      H1   -17.70604   12.12740   13.09495
       H   -15.66521    6.51237   18.22517
       O   -15.35527    6.26442   17.33635
      H1   -14.48317    6.71364   17.34053
       H   -12.40290    4.74918    8.45224
       O   -12.16580    3.83459    8.64327
      H1   -11.84854    3.55073    7.76906
       H    -7.71898    7.58735   11.55732
       O    -7.35676    6.85027   12.06460
      H1    -7.65982    6.10361   11.56297
       H   -12.82479    0.98243   11.86592
       O   -12.11116    1.39817   12.37777
      H1   -12.60912    2.21022   12.60672
       H   -10.01223   11.33733   19.01005
       O    -9.49413   10.89697   18.32207
      H1    -9.90233    9.99873   18.40784
       H   -17.69496    6.87643   11.77126
       O   -18.34261    6.51070   12.38609
      H1   -18.26430    5.54192   12.26723
       H   -12.58450    3.05792   18.56653
       O   -12.66196    3.78775   19.11177
      H1   -12.77376    3.41481   20.03032
       H   -11.19895    8.36548   12.91681
       O   -10.91736    8.98978   12.26820
      H1   -11.23125    9.80796   12.71795
       H   -16.57991    3.27432   18.34225
       O   -17.55790    3.39530   18.24208
      H1   -17.59223    3.79138   17.33150
       H    -8.87360    7.48545   16.92681
       O    -9.11135    7.78314   17.80059
      H1    -8.42647    8.41071   18.09550
       H   -12.95065    1.68018   16.99657
       O   -12.77458    2.23445   16.22153
      H1   -11.87692    2.61232   16.45404
       H   -13.44306    9.88321   10.65069
       O   -14.01714   10.70590   10.61217
      H1   -13.98654   10.65157    9.66969
       H   -14.13897   13.51898   12.28108
       O   -14.55904   14.27414   11.88634
      H1   -14.95916   14.67737   12.65689
       H   -18.32755    8.32241   13.27804
       O   -18.58547    9.16227   13.71163
      H1   -18.95487    9.75222   13.04990
       H   -17.50307   11.22004   16.15799
       O   -17.77382   11.57600   17.00593
      H1   -17.04450   11.29852   17.56143

