180
frame 9 | Written by MDAnalysis XYZWriter (release 2.4.3)
       H     9.00402   10.95518  -10.71951
       O     9.48230   10.83118  -11.53420
      H1     9.59689    9.87445  -11.60098
       H    15.89260   10.66696   -7.23619
       O    15.65802   11.62452   -7.27270
      H1    15.02328   11.68752   -8.04766
       H     8.84725   14.47714   -6.05369
       O     9.62423   15.03948   -5.85868
      H1     9.38312   15.40586   -5.02038
       H     5.12679    8.63407   -5.82831
       O     4.22368    8.50583   -5.47887
      H1     3.76489    9.01275   -6.14273
       H    15.45166    8.30531   -8.83003
       O    16.34738    7.97263   -8.68585
      H1    16.69788    7.69530   -9.55184
       H     4.69659   11.82233   -2.67023
       O     5.52776   11.56977   -3.06889
      H1     5.35646   11.58663   -4.07175
       H    15.86913   10.50620   -2.58216
       O    16.32008    9.68309   -2.49572
      H1    16.72107    9.69535   -3.36644
       H    13.53547    6.19347   -5.46610
       O    12.73230    6.55108   -5.04066
      H1    13.01641    7.37293   -4.63376
       H    12.23755    8.85842  -13.38498
       O    11.60718    8.52700  -14.07139
      H1    11.93870    7.67146  -14.43404
       H    15.41539    8.28482   -5.55606
       O    14.88967    9.03484   -5.92032
      H1    14.54624    9.48851   -5.09902
       H     9.61081    2.57353   -6.05739
       O    10.46359    2.80366   -5.61212
      H1    11.03377    2.17810   -6.09281
       H    14.07621   15.76784   -2.60726
       O    13.62204   14.90924   -2.36216
      H1    13.11729   14.85930   -3.20617
       H    11.69012    5.15003   -8.31725
       O    12.40078    5.77956   -8.52926
      H1    13.13222    5.37214   -7.95289
       H    10.96944    5.77267   -4.95682
       O    10.19144    5.28215   -4.67742
      H1    10.34361    4.44085   -5.19652
       H    10.72329   11.87275   -2.12486
       O    11.62326   11.66352   -2.55699
      H1    12.17180   11.66757   -1.77965
       H    11.07433   11.54222   -9.08365
       O    10.52790   11.99652   -8.42568
      H1    11.08635   12.80141   -8.30553
       H     7.25637    7.43885   -7.87480
       O     7.90707    6.74955   -8.30433
      H1     7.37331    6.23204   -8.97978
       H    10.32185   15.82227   -8.72583
       O    10.78138   15.10150   -8.35621
      H1    10.23776   15.06992   -7.52193
       H    12.74342   10.20741   -3.60460
       O    13.11135    9.34875   -3.73090
      H1    13.19030    8.94769   -2.83253
       H     7.45319    3.83483   -5.21774
       O     7.25507    4.70251   -4.81289
      H1     7.30738    5.29442   -5.55987
       H    15.04514    4.65387   -6.93858
       O    14.56719    5.53600   -6.72929
      H1    15.11291    6.16902   -7.22942
       H    14.41469   13.02789   -2.48116
       O    14.94027   12.30404   -2.82752
      H1    14.59073   12.26746   -3.73176
       H    13.37028    8.65360   -6.71554
       O    12.82100    8.47654   -7.50834
      H1    12.54378    7.59898   -7.18567
       H    10.96045   14.00593   -4.81905
       O    11.76001   13.93855   -4.31422
      H1    11.51095   13.26121   -3.66436
       H    10.92041    3.85855   -1.89443
       O    11.68803    3.52662   -2.38482
      H1    11.47634    3.83935   -3.31431
       H     8.86634    8.40988   -8.78235
       O     9.03768    9.38871   -8.77392
      H1     9.46382    9.56500   -7.89980
       H     8.77767    8.06401  -12.34269
       O     9.56676    7.48772  -12.44020
      H1    10.11019    7.96350  -13.09382
       H     7.49772    6.42792   -1.96471
       O     6.91116    5.69920   -2.17366
      H1     7.31618    5.31966   -3.00335
       H    14.94946    2.90847   -5.21004
       O    14.22885    3.34074   -4.66956
      H1    14.32127    4.25074   -4.73782
       H     4.62123    9.46789   -9.55125
       O     5.37538   10.14314   -9.50379
      H1     4.90578   10.98627   -9.67804
       H     5.63492   11.43785   -6.77643
       O     6.38781   11.13777   -7.28898
      H1     6.05325   10.76008   -8.12350
       H    17.01296   13.30407   -6.76202
       O    17.62547   13.63287   -6.12010
      H1    17.61394   14.53472   -6.53143
       H    15.92769   12.83550  -11.49851
       O    15.06801   12.76387  -11.91714
      H1    14.91732   13.51477  -12.46788
       H     8.90124   11.71758   -0.89344
       O     8.96536   11.95746   -1.83933
      H1     8.43940   11.25647   -2.32915
       H     8.57799   10.72909   -4.39481
       O     8.19008   10.06594   -3.79818
      H1     8.50610    9.24692   -4.20725
       H     6.34221    4.69674  -10.04309
       O     6.67890    5.53447  -10.39531
      H1     7.50407    5.29456  -10.85257
       H    13.53920    9.01312  -10.68569
       O    14.07433    8.99970   -9.86397
      H1    13.50064    8.72732   -9.20689
       H     9.65082    5.11202  -10.22262
       O     9.24634    5.15533  -11.13562
      H1     9.31852    6.10291  -11.39489
       H    10.42406    7.29010   -3.32593
       O    10.82393    7.84948   -2.64555
      H1    11.32518    8.50339   -3.08139
       H     7.13059    9.53735  -11.74232
       O     7.17616    8.57402  -11.67749
      H1     6.85011    8.36332  -10.80185
       H    12.25667   11.20904    0.63203
       O    13.06041   11.06349    0.05707
      H1    13.16942   10.12743   -0.11602
       H     9.54471    8.15076   -5.86635
       O     9.03194    7.66057   -5.23704
      H1     9.45347    6.80857   -5.35391
       H     7.45258    7.99661   -6.05127
       O     6.66623    8.37262   -6.55715
      H1     6.91683    9.29336   -6.78754
       H    10.78125   12.11106  -11.67989
       O    11.70889   12.37643  -11.88893
      H1    11.71254   13.32140  -11.63261
       H     6.39124   15.12305   -9.95840
       O     6.58066   15.50568   -9.11777
      H1     7.11076   14.74815   -8.70268
       H    11.31647   14.80277  -10.08869
       O    11.39575   15.13815  -11.00479
      H1    10.53053   14.81229  -11.33438
       H     8.88924    5.39406   -8.22610
       O     9.45671    4.62114   -8.17739
      H1     8.78422    3.92650   -8.07288
       H    15.42622    8.65525  -11.15878
       O    15.74166    8.40818  -12.05035
      H1    15.24034    7.55846  -12.18787
       H     9.11245    8.18026   -0.96782
       O     8.25700    7.81279   -0.71095
      H1     7.68415    8.55758   -1.03825
       H    12.66307    7.57528   -1.00159
       O    13.47146    8.15702   -0.86876
      H1    14.14815    7.51029   -0.83971
       H     8.64423   13.37077   -8.35677
       O     7.84887   13.60392   -7.91756
      H1     7.21032   12.84503   -8.06820
       H    12.73069    4.74530  -10.47450
       O    12.81017    3.98960  -11.09531
      H1    13.45507    4.33772  -11.74990
       H    13.81110   10.30829  -12.79900
       O    13.11571    9.95112  -12.17666
      H1    12.54113   10.75234  -12.05659
       H    14.25704   14.54719   -5.38877
       O    14.61186   15.32784   -5.83176
      H1    14.13019   15.55487   -6.69434
       H    11.90530   16.03277   -7.85039
       O    12.61879   16.62575   -7.50791
      H1    12.93320   16.96200   -8.38767
       H    14.11461   12.37315  -10.01324
       O    13.88728   11.83547   -9.24476
      H1    13.88674   10.94807   -9.68950
       H    17.80761    8.93226   -8.15236
       O    18.58631    9.35491   -7.98111
      H1    19.31645    8.68865   -8.02359
       H    11.28416    9.70926   -6.93969
       O    10.48244    9.99390   -6.47654
      H1    10.50140   10.91441   -6.71049
       H    12.84556   12.76258   -5.19529
       O    13.54218   12.06970   -5.22321
      H1    14.07437   12.16600   -6.01301
       H    16.42688    6.29950   -3.96769
       O    16.26466    6.90530   -4.71661
      H1    16.99170    7.54283   -4.53561

