180
frame 1 | Written by MDAnalysis XYZWriter (release 2.4.3)
       H    -1.38935   -9.95078   -0.50711
       O    -0.81374  -10.68791   -0.70242
      H1    -0.52623  -11.19860    0.03874
       H     4.35122   -8.74843    3.81817
       O     5.07490   -8.54632    3.24469
      H1     4.65943   -8.12095    2.47615
       H     5.52984   -9.65061    8.76683
       O     5.62701   -9.86007    9.72482
      H1     6.57518   -9.79997    9.97514
       H     9.53336  -12.79685   -0.05726
       O     8.58669  -12.99882    0.10646
      H1     8.17236  -12.14437   -0.16314
       H     8.50753   -9.67635    6.40418
       O     7.77870   -9.73504    5.75873
      H1     8.33163   -9.76865    4.90937
       H    -0.00856  -16.29803    1.69115
       O     0.94914  -16.37683    1.87183
      H1     1.46401  -15.59035    1.67377
       H     0.39232  -13.42391    5.61078
       O     0.17383  -12.49927    5.87821
      H1     0.98315  -12.18759    6.26447
       H     9.23054  -14.31141    6.30247
       O    10.13057  -14.46885    6.56883
      H1    10.58716  -14.48116    5.70595
       H     8.92416  -15.84666    2.17630
       O     9.67913  -16.06101    2.67546
      H1     9.29395  -16.63384    3.37757
       H     3.75945  -13.99338    1.46338
       O     3.29538  -14.74594    1.90471
      H1     3.79316  -15.59283    1.68636
       H     0.32616  -12.32039   11.33431
       O     0.08798  -12.93277   10.60934
      H1    -0.42893  -12.32965   10.14093
       H     7.97089  -14.44104   -0.77713
       O     7.55795  -15.30193   -0.64819
      H1     8.32668  -15.89546   -0.40367
       H     1.70756   -6.66613    3.29465
       O     1.45184   -7.58334    3.41931
      H1     0.59859   -7.63873    3.89557
       H     8.70829  -18.58929   -0.77739
       O     8.39174  -18.34914    0.11642
      H1     7.45755  -18.11356   -0.05712
       H     5.33888  -13.20813   11.58627
       O     5.66096  -14.14073   11.71805
      H1     5.96021  -14.47051   10.83918
       H     4.86442  -10.34208    0.86000
       O     5.84760  -10.42594    0.83778
      H1     6.25026   -9.79402    1.50512
       H     2.55772  -10.51825    1.67854
       O     2.81469  -10.86260    0.78520
      H1     2.32326  -10.26006    0.27707
       H     5.80513  -11.81606    2.00693
       O     5.64232  -12.53635    2.62549
      H1     5.80702  -13.29045    2.08969
       H     5.67560  -14.41160   -0.88455
       O     5.15451  -13.74267   -0.42478
      H1     4.79874  -13.15672   -1.14234
       H    -0.01686  -14.98943    4.33123
       O     0.52696  -15.22258    5.10536
      H1     1.35200  -14.95328    4.75193
       H     4.66406  -17.62042    2.43721
       O     4.86227  -16.91775    1.86625
      H1     5.61166  -16.30991    2.10128
       H     4.38569  -11.77895    8.43747
       O     3.94608  -12.59237    8.21134
      H1     4.63026  -13.21394    7.78470
       H     7.70859  -14.56132    2.63442
       O     7.08979  -15.09418    2.09110
      H1     7.17030  -14.86506    1.11013
       H     6.89374  -17.50385    8.72962
       O     7.56879  -17.48678    9.46187
      H1     7.30139  -18.01165   10.23619
       H     4.70998   -9.06670    6.58041
       O     5.13135   -9.80917    7.06603
      H1     6.01185   -9.79926    6.71658
       H     9.27277   -9.82650    2.35262
       O     9.35340  -10.08639    3.29047
      H1    10.24142  -10.23606    3.58153
       H     4.21728  -17.42705    7.69344
       O     4.37960  -17.36341    8.62214
      H1     3.65071  -16.88780    9.03577
       H     0.06470  -19.29710    8.50836
       O    -0.25392  -18.37256    8.71081
      H1     0.56122  -18.07642    9.10923
       H    -1.99446  -18.86126    2.37157
       O    -1.90853  -19.44306    3.15124
      H1    -0.97949  -19.29514    3.29723
       H     9.94620  -18.06662    7.32743
       O     9.20961  -18.67100    7.64130
      H1     8.85595  -18.22435    8.42787
       H     0.23892  -10.75453    8.28823
       O    -0.58722  -11.22616    8.35859
      H1    -0.34808  -11.88341    7.69435
       H     3.94981  -16.68038    5.53172
       O     3.44575  -17.39278    5.94699
      H1     2.50526  -17.22141    5.71421
       H     4.94771  -11.73603    5.74344
       O     4.77998  -12.59811    5.32109
      H1     5.05842  -12.51454    4.42142
       H    -2.77339  -15.31114    6.07607
       O    -3.07878  -14.46170    5.84458
      H1    -3.94890  -14.58617    5.41363
       H    -1.57272  -11.22747    3.03491
       O    -2.37874  -11.62656    2.66814
      H1    -2.78517  -10.95494    2.11444
       H     2.74222   -7.96506    6.08146
       O     3.06684   -8.56894    5.42016
      H1     2.62630   -8.36570    4.57051
       H    -2.01052  -15.56803    0.69328
       O    -1.83649  -16.18594    1.44674
      H1    -1.68365  -15.59365    2.19043
       H     2.25747  -10.65751   10.93649
       O     1.98498  -10.21821   10.15273
      H1     2.31837   -9.32627   10.30107
       H     0.05467  -17.70812    7.03215
       O     0.50348  -17.68370    6.15113
      H1     0.31712  -16.78643    5.80811
       H     4.54033  -11.26459   10.61900
       O     4.22704  -11.83685   11.29222
      H1     3.60341  -12.45167   10.93168
       H    -0.47254  -11.34108    4.62095
       O    -0.28376  -10.63131    3.99045
      H1    -0.48307   -9.81399    4.49477
       H     2.62862  -15.73969   -1.08487
       O     2.09048  -14.91290   -1.08662
      H1     2.65936  -14.15152   -0.78755
       H     2.71303  -11.07348    7.50582
       O     2.00094  -10.73948    6.95674
      H1     2.39709  -10.01563    6.42077
       H     7.93079  -13.51895    4.66337
       O     7.68699  -14.11809    5.40679
      H1     7.34873  -14.89051    4.96366
       H     1.45142  -10.89286    3.77953
       O     2.40769  -10.97649    3.49334
      H1     2.79440  -11.57572    4.10238
       H     2.22707  -15.55324   10.00443
       O     2.00527  -16.49804    9.88923
      H1     2.32816  -17.00460   10.59580
       H    -0.05308  -12.17269    1.91294
       O     0.29217  -12.32389    1.08038
      H1     1.16278  -12.03844    1.05811
       H     6.18652  -18.16001    6.74567
       O     6.40210  -17.21255    6.58479
      H1     6.87579  -17.18835    5.73721
       H     3.99761  -14.33015    4.80980
       O     3.48012  -15.08014    4.48333
      H1     3.53106  -14.90223    3.54686
       H     1.97333  -17.67157    0.80535
       O     2.65562  -18.26817    0.47755
      H1     3.44548  -17.87437    0.82942
       H     0.75805  -18.70242    4.50685
       O     0.65114  -18.84693    3.52197
      H1     1.12058  -18.05907    3.08738
       H     6.67176  -15.10680    8.72571
       O     7.24240  -14.87518    9.50960
      H1     7.62435  -15.71172    9.69287
       H    -1.92036  -13.33488    3.15369
       O    -1.69244  -14.21513    3.46883
      H1    -2.30289  -14.35749    4.23447
       H     8.99422  -11.93848    3.24185
       O     8.95211  -12.90128    3.21066
      H1     9.14631  -13.16086    2.29458
       H     1.69239  -13.65196   10.16418
       O     2.62312  -13.92333   10.22663
      H1     3.11465  -13.56282    9.42970
       H     8.37768  -17.99929    4.64170
       O     8.36910  -17.00338    4.80320
      H1     8.76958  -16.82487    5.65012
       H    -0.61656  -16.44027   10.14295
       O    -1.15575  -15.68171   10.37080
      H1    -0.73908  -14.79624   10.30565
       H     6.05397  -14.28872    6.73766
       O     5.52456  -14.85931    7.27718
      H1     5.90505  -15.75484    7.13406
       H    10.17044  -12.17744    9.41360
       O    10.67319  -12.23645    8.58360
      H1    10.36912  -12.96676    8.02675
       H     5.67362  -10.20353   -0.89819
       O     5.53619  -10.13022   -1.86306
      H1     5.23311  -10.94920   -2.32343

