180
frame 7 | Written by MDAnalysis XYZWriter (release 2.4.3)
       H     4.67449  -11.55280   12.36137
       O     3.71903  -11.38741   12.58025
      H1     3.19896  -11.81145   11.87302
       H     6.37907  -17.46177    6.11503
       O     6.37739  -17.41394    7.14901
      H1     6.97191  -18.16303    7.29923
       H     3.22682  -16.68939   16.32000
       O     3.33925  -17.31762   15.55557
      H1     2.57016  -17.09014   14.94956
       H     1.88750  -14.41759    7.75944
       O     1.79111  -13.43209    7.62585
      H1     1.92160  -13.33173    6.70086
       H     7.24843  -17.92004   12.44823
       O     7.15348  -17.70306   13.40166
      H1     6.35156  -18.19080   13.65019
       H    -0.39616  -14.71441    8.30103
       O    -1.23617  -14.92617    7.86316
      H1    -1.78020  -15.29108    8.58217
       H    -5.13738  -15.61647    8.99052
       O    -5.56573  -16.31318    9.55762
      H1    -6.33617  -16.63486    9.01571
       H     3.17804  -12.55402    8.87637
       O     3.01392  -12.12566    9.73561
      H1     3.84665  -11.60672    9.80220
       H     1.92267  -18.54374   10.08126
       O     1.54880  -18.52033   10.98794
      H1     1.01282  -19.35306   11.02539
       H    -5.68492  -12.50451   11.08597
       O    -6.35334  -13.24357   11.16018
      H1    -6.31137  -13.74647   10.33433
       H     0.38320  -17.55124    6.54187
       O     0.17761  -17.64569    7.51885
      H1    -0.70245  -17.21117    7.58470
       H     2.86087  -16.46730   12.97968
       O     2.03043  -16.92689   13.21783
      H1     1.97516  -17.60735   12.52272
       H    -5.81353  -14.52257   12.90107
       O    -5.47982  -14.59644   13.81109
      H1    -5.38153  -13.63077   14.01581
       H    -4.58517  -11.53351   12.97122
       O    -4.69307  -11.99071   13.74494
      H1    -3.88863  -11.78092   14.23532
       H    -2.32516  -17.15623   11.29490
       O    -1.95961  -16.72548   10.53012
      H1    -2.58040  -17.01208    9.81093
       H     2.56123  -18.94537    5.53923
       O     3.47917  -18.91048    5.79996
      H1     3.98637  -19.40416    5.12613
       H    -3.61561  -17.56263    7.61539
       O    -3.54461  -17.64461    8.58054
      H1    -4.42930  -17.27962    8.85802
       H     6.11950  -12.22365   13.50696
       O     6.49513  -11.76532   12.69155
      H1     6.32236  -12.51026   12.09004
       H    -1.42138  -12.00926   12.27433
       O    -1.68683  -11.89505   11.36788
      H1    -1.27146  -11.03744   11.28138
       H     3.14153  -18.97883    7.69641
       O     2.98791  -18.79832    8.66057
      H1     3.89206  -18.75571    9.04528
       H     2.93926  -16.70082    5.25534
       O     2.56771  -16.29798    4.48505
      H1     2.66596  -15.35724    4.65753
       H    -0.04078   -9.74698   10.39546
       O    -0.64708   -9.47975   11.07457
      H1    -0.99040   -8.60729   10.83060
       H    -0.00191  -10.84051    8.43533
       O     0.68642  -10.23923    8.83996
      H1     1.38880  -10.90041    9.02589
       H    -3.04420  -12.84526    7.29969
       O    -3.90783  -12.91851    6.84739
      H1    -4.48416  -12.94413    7.61899
       H     4.70675  -18.74454   14.99749
       O     5.46637  -19.37732   15.00974
      H1     6.05369  -18.93634   15.57862
       H     0.34122  -17.18204   17.31268
       O     0.47917  -16.24809   17.54295
      H1    -0.24967  -15.96785   18.08588
       H    -2.97637  -14.69718   10.37791
       O    -3.66123  -14.29136    9.83376
      H1    -4.16851  -13.73779   10.43682
       H    -0.51609  -16.31855   10.32245
       O     0.42613  -16.01298   10.43003
      H1     0.79454  -16.86757   10.78596
       H     3.10720  -12.49741   13.94448
       O     3.18979  -12.81804   14.88153
      H1     2.67263  -13.65088   14.79360
       H    -4.34666  -14.71930   17.08894
       O    -3.38694  -14.73866   16.80289
      H1    -3.20667  -13.76603   16.78968
       H     0.93902  -13.70312    4.78626
       O     1.71207  -13.15014    4.89995
      H1     1.26016  -12.27489    4.78989
       H     8.40123  -19.18096   10.56563
       O     7.90271  -18.32391   10.72943
      H1     7.20891  -18.46590   10.05827
       H    -4.58695  -15.87475    5.81927
       O    -5.35781  -16.35061    6.22103
      H1    -5.34488  -17.26216    5.90255
       H     0.97973  -15.15811   15.73625
       O     0.75171  -14.35527   15.17426
      H1     0.68669  -14.72115   14.25610
       H     5.79544  -13.90776    9.91160
       O     5.38511  -13.23000   10.48209
      H1     4.47280  -13.11944   10.22064
       H     8.86795  -14.33433    9.78636
       O     8.70099  -13.74259   10.56274
      H1     8.04542  -14.25324   11.03340
       H     2.52973  -13.46105   10.71390
       O     2.68848  -14.13799   11.44456
      H1     1.92313  -14.73649   11.27945
       H    -0.59284  -19.28536   16.88533
       O    -0.87270  -18.46274   16.33253
      H1    -1.65483  -18.23117   16.85704
       H    -2.68722  -15.34957   14.31614
       O    -2.68236  -14.90188   13.47252
      H1    -3.61180  -14.80025   13.27928
       H    -3.74263  -13.97949    5.58207
       O    -3.63103  -14.67487    4.85088
      H1    -3.87815  -14.22450    4.04644
       H    -1.98812  -12.28636   14.99273
       O    -1.22191  -12.11525   14.42092
      H1    -0.58117  -12.78507   14.55656
       H     1.58740  -16.57334    8.15051
       O     2.32999  -15.98536    8.01754
      H1     2.99707  -16.56770    8.36354
       H    -0.33127  -10.96273   15.50813
       O    -0.07521  -10.51945   16.34063
      H1     0.79690  -10.08565   16.20426
       H    -1.82142  -11.79852    8.95750
       O    -1.53180  -11.99771    8.08232
      H1    -0.92783  -12.74436    8.19923
       H     4.84021  -15.61464   16.84217
       O     4.30034  -16.03752   17.63970
      H1     3.89129  -15.11899   17.88535
       H    -2.50290  -18.86724    5.92901
       O    -2.80970  -18.00334    5.76102
      H1    -3.18494  -18.03719    4.85141
       H    -6.02739  -17.42487   13.85257
       O    -6.17292  -17.58900   14.81108
      H1    -5.98799  -18.52229   14.97364
       H     4.64979  -19.19038   10.64505
       O     5.09522  -18.48094   10.09278
      H1     4.84571  -17.58152   10.45646
       H    -6.36659  -18.11318   11.84087
       O    -5.76463  -17.39907   11.95784
      H1    -5.57091  -16.99017   11.10242
       H     5.19265  -15.55111   12.02124
       O     4.47333  -16.10513   11.79127
      H1     3.75247  -15.45470   11.64204
       H    -2.99841  -17.47190   13.05434
       O    -3.02597  -18.24228   12.57891
      H1    -3.99445  -18.29334   12.39573
       H     4.67868  -12.81258   14.95270
       O     5.72054  -12.75900   15.05325
      H1     5.76368  -12.20327   15.84050
       H    -0.53882  -16.30292    4.20974
       O    -0.72003  -15.36777    4.50912
      H1    -1.48848  -15.49949    5.13696
       H     0.18427  -18.40768    4.04990
       O    -0.47340  -17.87504    3.53281
      H1    -0.00040  -17.93227    2.63698
       H     6.52924  -15.81183    8.03779
       O     6.75229  -15.17994    8.74928
      H1     7.55415  -15.58625    9.10351
       H     7.10177  -15.53206   15.95078
       O     6.08504  -15.44610   15.85271
      H1     6.02802  -14.48252   15.87462
       H    -1.01947  -14.21351   12.88473
       O    -0.14250  -14.19372   12.53347
      H1    -0.07363  -15.02265   12.01410
       H    -4.31869  -10.11448   10.77622
       O    -4.46268  -11.05148   11.07673
      H1    -3.56382  -11.41593   11.04064
       H     6.42077  -14.89993   13.53518
       O     6.98253  -14.98361   12.73985
      H1     7.19445  -15.89277   12.78141
       H     5.36955   -9.60870   10.37512
       O     5.05521  -10.33185    9.79733
      H1     5.90960  -10.65797    9.40418

