180
frame 10 | Written by MDAnalysis XYZWriter (release 2.4.3)
       H    18.46453    5.92910    4.50013
       O    18.52301    6.13851    3.52269
      H1    17.66426    5.86800    3.15476
       H    15.89988   10.26928   -7.46856
       O    15.99836   11.21049   -7.33232
      H1    15.59180   11.44246   -8.18202
       H    16.68333   11.77395    0.45060
       O    17.47748   11.57241    0.01913
      H1    18.10319   11.60562    0.77206
       H    16.03917    1.11156    0.56994
       O    15.59249    1.97205    0.44857
      H1    15.84173    2.22185   -0.43641
       H    15.09345    7.69178   -9.39700
       O    15.91704    7.16764   -9.36380
      H1    16.34542    7.41549  -10.18109
       H    15.37007   10.07002   -2.32758
       O    16.11756    9.47522   -2.55729
      H1    16.73115   10.00748   -3.03043
       H    13.19560    3.75409   -9.67917
       O    13.58702    3.38725   -8.86692
      H1    14.10840    2.65190   -9.24700
       H    13.81053    5.77270   -5.78387
       O    13.06324    6.09181   -5.32194
      H1    13.39716    6.62688   -4.61742
       H    17.54075    8.22666   -1.64768
       O    18.08538    7.94013   -0.90207
      H1    17.73863    8.39937   -0.12040
       H    17.76790    9.47071    2.11856
       O    17.58993    8.62217    1.75996
      H1    18.08523    8.06363    2.34595
       H    18.84597   10.20607   -9.27147
       O    19.24608   10.96293   -9.73917
      H1    18.64630   11.69745   -9.56192
       H    15.68481    7.86484   -6.20163
       O    15.08682    8.62091   -6.31605
      H1    14.82551    8.67335   -5.40507
       H    16.97291   -0.10270   -2.09152
       O    16.07892   -0.37533   -2.23833
      H1    15.56342    0.35608   -2.54647
       H    14.22874    2.50717   -3.29094
       O    14.78630    2.35043   -2.49370
      H1    14.14507    2.75801   -1.87500
       H    11.49456    5.49168   -8.46161
       O    12.42121    5.78166   -8.65477
      H1    12.94503    5.15308   -8.17072
       H    16.09578    2.05118   -6.32538
       O    16.44521    2.94808   -6.07348
      H1    17.38651    2.78594   -6.19873
       H    11.51367    5.09071   -5.07441
       O    11.03170    4.43378   -4.48096
      H1    10.77709    3.70536   -5.03295
       H    10.62090   11.53512   -2.55124
       O    11.49676   11.76694   -2.87991
      H1    12.04725   11.80965   -2.11238
       H    14.22394   12.29711    0.29240
       O    14.79497   13.12240    0.49890
      H1    15.23065   13.24826   -0.34121
       H    12.16372    9.31102   -4.15094
       O    12.51206    8.49263   -3.73367
      H1    12.77331    8.75341   -2.84870
       H    13.57138    1.33934   -5.37333
       O    13.89664    0.44266   -5.47754
      H1    14.23753    0.41598   -6.37510
       H    12.70328    6.72269    2.26407
       O    13.46031    6.94858    2.81082
      H1    13.89297    7.71735    2.39547
       H    15.86506    4.58391   -7.22903
       O    15.36928    5.44026   -7.25598
      H1    15.43931    5.66585   -8.21585
       H    14.22117   12.61770   -2.53440
       O    15.08050   12.13322   -2.66079
      H1    15.01525   11.66759   -3.55313
       H    19.16303   15.81982   -5.66275
       O    18.90715   16.38701   -4.93586
      H1    18.91080   17.25690   -5.37506
       H    13.63625    8.20471   -7.17541
       O    12.90643    8.26576   -7.85743
      H1    12.74856    7.28681   -7.90666
       H    11.53199   13.47914   -5.20005
       O    12.39080   13.19726   -4.88288
      H1    12.27237   12.45864   -4.20224
       H    16.03723    2.65838    2.12491
       O    15.83103    2.96890    3.06418
      H1    14.90239    2.77086    3.09412
       H    15.59624    8.72240    1.65271
       O    14.88800    9.35828    1.38306
      H1    14.67567    8.92890    0.56808
       H    12.69414    3.73583    0.14730
       O    12.08770    3.62672    0.95300
      H1    12.68352    3.25500    1.67855
       H    11.38970    3.44320   -1.28052
       O    12.12188    3.35682   -1.94045
      H1    11.71878    3.75306   -2.71846
       H    16.96022   13.43543   -5.02281
       O    16.99892   13.53360   -4.10126
      H1    16.29497   13.04855   -3.66532
       H    14.36803    3.56338   -5.44407
       O    13.66521    3.22847   -4.91104
      H1    13.14390    4.10823   -4.70087
       H    15.75218    4.77726    2.55459
       O    15.80110    5.75895    2.41994
      H1    14.84804    5.96311    2.70302
       H    16.61816    2.84777   -2.84579
       O    17.48421    2.63463   -2.52787
      H1    18.07869    3.03917   -3.13000
       H    17.81133   14.07081   -0.95725
       O    17.73114   14.66591   -0.18542
      H1    18.43870   14.29174    0.36942
       H    16.86539   12.82640   -7.20626
       O    17.58711   13.38372   -6.93918
      H1    17.22851   14.32607   -7.10296
       H    20.11535   15.12906   -8.46472
       O    19.75456   14.73405   -7.64818
      H1    18.99207   14.25567   -7.90863
       H    13.45509    9.45533  -10.41146
       O    14.25185    9.39942   -9.83958
      H1    13.73658    9.01576   -9.07451
       H    18.12844   15.90655   -3.22901
       O    18.02237   16.32483   -2.34294
      H1    18.27194   15.53426   -1.78323
       H    16.18263    7.12933   -0.53230
       O    15.42470    6.84571    0.00504
      H1    15.80297    6.66830    0.92523
       H    18.38992   11.77162   -6.65088
       O    18.88837   10.91261   -6.41505
      H1    18.31550   10.31416   -6.91942
       H    10.48643    6.37135   -2.67853
       O    10.24590    7.31485   -2.54336
      H1    11.02579    7.83768   -2.80238
       H    12.54179   11.37415    0.39056
       O    12.89010   11.24499   -0.54187
      H1    12.74742   10.26711   -0.69740
       H    18.23198   12.30434   -1.38529
       O    18.75340   12.61515   -2.16530
      H1    18.13644   12.63776   -2.94172
       H    15.13699    8.90647  -11.42556
       O    15.87328    8.35251  -11.80037
      H1    15.35224    7.67962  -12.19674
       H    18.91284    2.18523   -8.03112
       O    18.88708    2.20228   -7.05269
      H1    19.72238    1.83675   -6.74420
       H    12.31238    7.71936   -0.71521
       O    13.03517    8.40150   -0.75050
      H1    13.78741    7.74811   -0.71931
       H    14.04510   13.92443   -5.73904
       O    14.60842   14.71750   -5.69591
      H1    14.06672   15.25824   -6.24527
       H    19.05903   10.90693   -3.26602
       O    18.65526   10.18527   -3.76849
      H1    18.71359   10.45455   -4.65297
       H    14.89875   12.25741  -10.64368
       O    14.62954   12.02789   -9.70744
      H1    14.48992   11.07866   -9.66352
       H    17.37255    7.92572   -8.53796
       O    17.99753    8.59531   -8.26616
      H1    18.83219    8.01568   -8.42859
       H    11.89067    9.54589   -6.66061
       O    11.48652   10.20653   -6.10424
      H1    11.12398   10.79100   -6.82002
       H    15.98255    4.88763  -10.34724
       O    16.51765    4.08134  -10.50205
      H1    16.43109    3.87929  -11.44881
       H    13.52383   11.55240   -5.37573
       O    14.30358   11.09659   -5.05734
      H1    14.81188   11.16723   -5.88361
       H    19.51232    6.91292   -3.19956
       O    19.14825    7.45311   -3.87098
      H1    19.21245    8.35241   -3.53369
       H    19.08780    6.31212   -9.76325
       O    18.56233    5.98112  -10.47340
      H1    17.91615    5.38969  -10.07806
       H    15.84599    7.92777   -3.39257
       O    15.34968    7.19422   -3.77774
      H1    15.98470    6.50660   -3.63155
       H    18.60698   10.64780    3.73252
       O    18.62341   11.06331    2.89780
      H1    19.58633   10.90590    2.63923
       H    18.94759    1.00776    0.36759
       O    18.35919    0.86015   -0.38457
      H1    18.35190    1.80486   -0.66041

