180
frame 8 | Written by MDAnalysis XYZWriter (release 2.4.3)
       H    -3.13409    9.47354   -2.06480
       O    -3.71953    9.03828   -2.72083
      H1    -3.35333    9.37606   -3.55106
       H    -6.34554    2.76906   -5.42243
       O    -6.71556    3.64164   -5.14537
      H1    -5.91457    4.15118   -5.43381
       H    -7.20728    1.64938   -7.67872
       O    -7.17616    0.94466   -6.99224
      H1    -8.11624    0.90673   -6.66040
       H    -6.30003   -1.21743   -9.33310
       O    -7.18826   -0.99303   -9.06065
      H1    -7.13853   -0.28694   -8.41833
       H    -1.26109    3.81670   -3.96163
       O    -0.33115    3.60737   -3.94550
      H1    -0.15960    4.48237   -3.52285
       H   -10.80513    2.24678   -1.76031
       O   -11.31518    1.73240   -1.13071
      H1   -11.18485    0.80996   -1.42354
       H    -3.66989    4.16628   -3.54456
       O    -2.99119    4.54063   -4.21070
      H1    -3.40050    4.42192   -5.11927
       H    -2.73606   -0.44593   -4.62035
       O    -2.61155   -0.54552   -3.66096
      H1    -1.76859   -0.07540   -3.54517
       H    -3.45796   -0.36288   -1.53476
       O    -3.46230   -0.89529   -0.70147
      H1    -3.83361   -0.28079   -0.07036
       H    -5.52136    4.78403   -2.07247
       O    -5.34086    4.04467   -2.65494
      H1    -6.00016    4.11989   -3.39095
       H    -0.75841    6.04351   -2.75551
       O     0.21161    6.11788   -2.92705
      H1     0.49080    5.63440   -2.10991
       H   -12.82483    7.05457   -5.79862
       O   -12.14985    6.42246   -6.00787
      H1   -12.47613    5.95416   -6.77230
       H    -1.97482    4.19227   -8.04545
       O    -2.65098    3.67378   -8.49772
      H1    -2.11873    2.89476   -8.78803
       H    -9.54649    9.46519   -7.87497
       O    -9.26276    9.35462   -6.94880
      H1    -9.60836    8.44010   -6.78604
       H    -1.34141    1.60688  -11.14918
       O    -0.94138    2.16540  -10.46803
      H1    -1.08634    3.11795  -10.75019
       H    -7.16621    8.43668   -7.68851
       O    -6.68972    8.01371   -8.36950
      H1    -6.95139    7.07324   -8.20804
       H    -6.31342    5.43469    0.11581
       O    -5.40614    5.32280   -0.23051
      H1    -4.87612    6.04724    0.03926
       H    -7.93428   -0.25628  -10.51449
       O    -8.40433    0.31722  -11.13828
      H1    -8.89194   -0.28090  -11.72201
       H    -9.27981   -1.37458   -2.98293
       O    -8.77983   -1.44922   -3.79786
      H1    -7.92797   -1.04818   -3.57494
       H    -2.48896   -2.65386   -3.40475
       O    -2.81245   -3.56822   -3.62083
      H1    -3.76049   -3.40880   -3.78516
       H    -6.68250    0.21157   -2.39596
       O    -6.40371   -0.43682   -3.03347
      H1    -6.15249   -1.20791   -2.50748
       H    -1.19362   -2.13522   -7.63564
       O    -0.95626   -2.58734   -8.48576
      H1    -0.73069   -1.79220   -9.00091
       H   -12.16169    5.18456   -4.75196
       O   -11.76229    4.65120   -4.08618
      H1   -10.90961    4.53636   -4.50409
       H    -9.93415   -0.06564   -5.39683
       O    -9.70680    0.11076   -6.34342
      H1   -10.30435    0.85742   -6.45247
       H    -8.38986   -2.58782   -8.61648
       O    -8.91098   -3.32851   -8.22287
      H1    -8.99517   -3.94461   -8.93823
       H    -2.96715    7.21202   -2.22821
       O    -2.49022    6.37008   -2.38414
      H1    -3.14617    5.97054   -3.00614
       H   -11.34068   -2.55897   -6.70307
       O   -11.81380   -1.86174   -7.18652
      H1   -11.09477   -1.17243   -7.17520
       H    -6.07694    2.40184   -2.00826
       O    -6.85201    1.83586   -1.76675
      H1    -6.81170    1.75026   -0.80504
       H    -3.52516   -0.27582   -7.02622
       O    -3.57853   -0.60036   -6.12488
      H1    -4.05018    0.15993   -5.74981
       H    -0.84429    0.80740   -7.32010
       O    -0.61041    0.02673   -7.92643
      H1    -0.15724    0.58539   -8.62720
       H    -5.52408    5.45660   -8.13278
       O    -6.32606    5.32217   -8.62106
      H1    -6.01838    5.40637   -9.55256
       H    -4.66150   -2.23654  -10.72489
       O    -4.36671   -1.86811   -9.84164
      H1    -4.63391   -0.97664   -9.81248
       H   -10.30586    6.86660   -5.21550
       O    -9.34935    6.80996   -5.39098
      H1    -8.95673    6.55034   -4.55467
       H    -9.08364    3.50911    0.04121
       O    -9.51790    3.69290    0.91935
      H1   -10.25200    3.03224    1.07298
       H    -4.08220    4.39742    0.97637
       O    -3.49432    4.01194    1.64002
      H1    -2.84466    4.70853    1.86376
       H   -10.07748    2.42434   -9.16958
       O    -9.98966    2.61088  -10.09906
      H1    -9.61134    1.79847  -10.47473
       H    -4.59305   -2.37752   -1.30392
       O    -5.32679   -2.90470   -1.63917
      H1    -5.05300   -3.86016   -1.59873
       H    -3.78294    8.99736   -8.82841
       O    -4.17997    8.18251   -9.25509
      H1    -5.05465    8.24769   -8.83881
       H    -5.78543   10.38444   -1.54689
       O    -6.19590    9.82197   -2.15418
      H1    -5.46205    9.32751   -2.54590
       H    -8.11173    2.96915   -2.03606
       O    -8.98653    3.35355   -1.90436
      H1    -8.81520    4.26480   -2.22471
       H    -6.53405    5.43922  -12.07379
       O    -5.84476    5.90919  -11.61222
      H1    -6.12804    6.80896  -11.77708
       H   -11.11727    4.14428   -9.96051
       O   -11.70345    4.85770  -10.24419
      H1   -11.05085    5.49969  -10.52242
       H     0.36718    3.56042   -7.12415
       O     0.22831    2.83125   -6.50439
      H1     0.17241    3.22674   -5.66763
       H   -10.86207    2.59307   -6.63158
       O   -11.32541    2.22492   -7.35400
      H1   -12.26355    2.38276   -7.11400
       H    -7.97890    6.74464    1.63995
       O    -7.75591    6.58224    0.71244
      H1    -7.93776    7.49332    0.33496
       H    -6.92496    3.67591   -8.83930
       O    -7.20784    2.71401   -8.96305
      H1    -8.04646    2.74955   -9.45177
       H    -1.65796    7.02186   -7.65690
       O    -2.30717    6.34057   -7.47300
      H1    -2.54942    6.09104   -8.37879
       H    -3.76762    3.95287   -7.26466
       O    -4.19211    4.60067   -6.67093
      H1    -3.64369    5.34415   -6.79947
       H     0.08367    0.28236   -3.95476
       O    -0.19723    0.91925   -3.32320
      H1    -0.24847    1.71489   -3.82393
       H    -8.29534   -2.74067   -4.83363
       O    -8.03963   -3.48757   -5.45101
      H1    -8.47282   -3.25354   -6.38482
       H    -5.60714    1.83654    0.88495
       O    -6.48669    2.19001    0.72151
      H1    -7.11391    1.65184    1.26098
       H    -2.50881    0.26737   -8.75657
       O    -3.30343    0.77356   -8.73924
      H1    -3.41059    0.94495   -9.69634
       H    -4.04576   -3.09850   -8.38320
       O    -4.32040   -3.59112   -7.61911
      H1    -3.61799   -3.31374   -7.00401
       H    -3.99024    0.21542    1.94222
       O    -3.90750    0.94050    1.29543
      H1    -3.59136    1.73320    1.85529
       H   -10.97587   -1.42861   -1.18818
       O   -11.64277   -0.93917   -1.75551
      H1   -11.83879   -1.68659   -2.32943
       H    -9.72718    6.10573   -2.52502
       O    -8.73544    5.89746   -2.64054
      H1    -8.45696    6.27129   -1.83055
       H    -5.48881    1.64421  -11.54283
       O    -5.35801    1.51623  -10.60897
      H1    -6.08306    2.04803  -10.26661
       H    -5.62259    1.16220   -6.02541
       O    -5.11189    1.36116   -5.20660
      H1    -5.52757    0.84221   -4.54432
       H    -8.40744    3.72939   -5.79539
       O    -9.35493    3.94492   -5.97756
      H1    -9.28747    4.88847   -5.80279
       H    -5.10189   -3.26567   -5.92453
       O    -5.37702   -3.23305   -5.00911
      H1    -6.32835   -3.40550   -5.10420

