180
frame 7 | Written by MDAnalysis XYZWriter (release 2.4.3)
       H    -2.30080   -3.71256   -0.03393
       O    -2.63850   -4.48666    0.46414
      H1    -3.47625   -4.10460    0.88615
       H    -5.42424   -7.37127  -10.88090
       O    -6.33486   -7.14661  -10.52513
      H1    -6.13341   -6.62845   -9.68283
       H     6.30577   -4.22960   -3.30526
       O     5.99119   -5.06000   -2.85351
      H1     5.09331   -4.89702   -3.03715
       H    -8.02234   -7.12445   -5.42401
       O    -7.49055   -7.64078   -4.79495
      H1    -6.65354   -7.37132   -5.13781
       H    -3.30614   -8.27456   -2.13700
       O    -2.50600   -7.91960   -2.46110
      H1    -2.79254   -7.04693   -2.82054
       H     0.35387   -3.10198   -7.30935
       O     0.95075   -3.12633   -6.55444
      H1     1.16923   -4.10683   -6.63357
       H    -2.83472    0.72788   -4.25623
       O    -2.44930    0.21072   -3.52665
      H1    -1.60390    0.68902   -3.35466
       H     0.59729   -6.13492   -0.78909
       O     1.23333   -5.45211   -0.84669
      H1     0.61002   -4.71600   -0.76813
       H    -5.02850   -5.28781   -1.89827
       O    -4.88880   -4.95274   -0.97205
      H1    -3.87736   -4.88185   -0.97410
       H    -1.79783   -9.47945   -8.02166
       O    -2.29561  -10.29335   -8.25282
      H1    -1.66264  -10.95661   -8.06952
       H    -2.14508  -10.79966   -3.98876
       O    -2.48732  -11.31348   -4.70950
      H1    -3.36010  -10.90355   -4.92873
       H    -3.19860   -0.15353   -1.81629
       O    -3.20149   -0.55031   -0.94970
      H1    -3.88916    0.00342   -0.52539
       H     3.82654   -3.08855  -10.58947
       O     3.17546   -3.60100  -10.11201
      H1     3.29857   -3.06559   -9.31082
       H     2.45103   -5.26695   -2.43049
       O     3.19186   -4.74367   -2.73406
      H1     3.22062   -4.04658   -2.07936
       H     1.67914   -2.49795  -12.62653
       O     1.28947   -2.40446  -11.70698
      H1     1.91628   -2.89266  -11.05577
       H     4.45495   -4.71653   -6.49109
       O     5.23380   -4.10284   -6.42710
      H1     5.55541   -4.22290   -7.36001
       H     3.06710   -7.68968   -6.38371
       O     2.98514   -7.80110   -7.33162
      H1     3.41204   -8.67460   -7.50494
       H     2.92907   -5.52923   -4.91642
       O     2.25787   -5.52305   -5.61109
      H1     1.52677   -5.96525   -5.13890
       H    -2.15605   -4.51311  -10.55901
       O    -2.58238   -4.86770   -9.78175
      H1    -3.41620   -4.39600   -9.69942
       H     5.02086   -7.84406   -5.29255
       O     4.46294   -7.31419   -4.67245
      H1     4.13761   -7.98511   -4.07162
       H     2.55274   -0.27181   -9.43592
       O     1.85780   -0.07786  -10.02922
      H1     1.44096   -0.91889  -10.12115
       H     2.69610   -1.67138   -7.21398
       O     3.38339   -2.11974   -7.76290
      H1     4.11662   -2.21054   -7.12702
       H     2.30989   -5.23512  -10.68555
       O     1.69843   -5.95456  -10.66952
      H1     1.13180   -5.75033   -9.89198
       H    -0.85260   -7.32206  -13.44300
       O    -0.33881   -6.57514  -12.98334
      H1    -0.13899   -7.01297  -12.14628
       H    -1.38903  -12.24475   -6.09129
       O    -0.71204  -12.06695   -6.74750
      H1    -0.05375  -11.53819   -6.25873
       H    -1.78135   -7.26209   -0.92558
       O    -1.05673   -6.86192   -0.50141
      H1    -1.55028   -6.16871   -0.06652
       H     0.96762   -8.87680    0.00569
       O     1.16005   -9.43779   -0.81571
      H1     1.77868  -10.07643   -0.39482
       H     0.10767   -9.24002   -2.18193
       O    -0.28254   -9.25757   -3.10437
      H1    -1.12856   -8.88208   -2.88799
       H    -2.80900   -1.66662   -3.95275
       O    -3.00548   -2.57206   -4.18845
      H1    -4.00953   -2.45105   -4.27326
       H     2.91066    0.21239   -4.58655
       O     3.73528    0.78934   -4.66252
      H1     3.44124    1.59153   -4.16012
       H     0.00920   -3.67776  -12.03912
       O    -0.85298   -4.09201  -12.04814
      H1    -0.50412   -4.98300  -12.29440
       H    -6.51540    0.09124   -2.57678
       O    -6.18152   -0.50074   -3.28199
      H1    -5.68184   -1.22624   -2.82955
       H     0.71609   -9.57469   -6.22201
       O     0.91878  -10.30842   -5.59977
      H1     0.49979   -9.99221   -4.76354
       H    -1.51886   -2.93154   -7.53703
       O    -0.90209   -2.66688   -8.30054
      H1    -0.94239   -1.71298   -8.29688
       H    -3.94130  -10.25471   -7.87040
       O    -4.85905   -9.88462   -7.84558
      H1    -5.05616  -10.03832   -8.77357
       H     1.05482   -8.19760   -7.41506
       O     0.21127   -8.46150   -7.75645
      H1     0.54973   -9.20976   -8.32675
       H    -3.04584    0.75868   -7.14652
       O    -3.18174    0.75172   -6.19429
      H1    -4.12905    0.97108   -6.14033
       H    -0.24279    0.80067   -7.50853
       O     0.10598    0.05893   -7.97957
      H1     0.51432    0.37633   -8.78290
       H    -5.18170   -2.04448  -11.04968
       O    -5.41486   -1.59263  -10.23787
      H1    -4.76935   -0.86065  -10.37769
       H    -6.79419   -4.69922   -8.58242
       O    -5.97880   -5.23728   -8.66500
      H1    -5.38121   -4.63414   -8.20968
       H    -4.54784   -1.71873   -1.18295
       O    -5.22608   -2.37689   -1.30913
      H1    -4.82614   -3.20390   -1.03150
       H    -2.17152   -3.83984   -5.64659
       O    -1.91671   -4.56114   -6.23398
      H1    -1.34026   -5.06347   -5.66323
       H    -3.22509   -5.74766   -6.13334
       O    -4.15973   -6.08338   -6.05978
      H1    -4.61980   -5.28709   -5.86069
       H    -1.85697   -4.45645   -2.91977
       O    -2.60370   -5.02655   -3.18302
      H1    -3.18158   -4.35850   -3.56050
       H    -0.52790   -7.18732   -5.99256
       O    -0.24726   -6.76724   -5.13292
      H1    -0.38313   -7.48514   -4.46456
       H    -5.18946   -9.95514   -5.90758
       O    -4.62821   -9.65782   -5.15574
      H1    -4.13465   -8.90349   -5.50942
       H    -0.82022   -5.34015   -8.83928
       O    -0.04897   -5.93331   -8.66159
      H1    -0.42411   -6.80925   -8.69269
       H     1.10401   -1.34877   -4.49741
       O     1.32975   -0.48886   -4.92443
      H1     1.15247   -0.67655   -5.88116
       H     1.96492   -3.66194   -3.61561
       O     1.05931   -3.35423   -3.66603
      H1     1.00820   -3.34291   -4.66296
       H     3.72834   -6.40270   -8.54523
       O     4.45302   -5.97417   -9.01367
      H1     4.09165   -5.12872   -9.29513
       H     3.53983   -8.22647   -1.91643
       O     3.48100   -8.90363   -2.63435
      H1     2.55907   -9.18194   -2.54390
       H    -5.90319   -8.72676   -2.09900
       O    -5.03834   -9.06162   -2.37029
      H1    -5.07169   -9.14835   -3.37714
       H     0.20260    0.92931   -4.37155
       O    -0.00540    1.61298   -3.65239
      H1    -0.06587    2.41219   -4.19707
       H    -3.50045   -7.27407  -12.21757
       O    -3.75576   -7.73575  -11.39932
      H1    -3.43798   -7.10978  -10.69654
       H    -8.48494   -2.91875   -4.50333
       O    -8.23979   -3.65613   -5.01037
      H1    -8.22806   -3.35431   -5.91652
       H    -6.55773   -6.46005   -3.45632
       O    -5.63787   -6.10321   -3.35263
      H1    -5.36293   -5.99996   -4.27121
       H    -1.74571    0.54279   -8.65157
       O    -2.69811    0.61292   -8.71612
      H1    -2.75118    1.45488   -9.16412
       H    -4.80331   -2.12512   -8.44795
       O    -4.37809   -2.85271   -7.97766
      H1    -3.54059   -2.46868   -7.83357
       H    -5.28381   -3.24307   -6.20239
       O    -5.41832   -3.56594   -5.29560
      H1    -6.36177   -3.43494   -5.16983
       H     0.41175   -2.91982   -1.54839
       O    -0.31140   -3.03439   -0.91761
      H1    -0.21127   -2.39883   -0.23249

