180
frame 3 | Written by MDAnalysis XYZWriter (release 2.4.3)
       H    14.49801   -9.14276  -13.58446
       O    14.36092   -9.40233  -14.48872
      H1    13.94865   -8.71170  -15.00429
       H    12.85066   -8.37607   -7.58188
       O    13.57876   -8.28394   -8.16337
      H1    14.32400   -7.84879   -7.65867
       H    17.29735   -5.64903   -4.63785
       O    17.14864   -5.97528   -3.78254
      H1    17.88567   -5.52866   -3.31231
       H    18.23921   -6.74373  -15.54186
       O    18.05283   -5.88020  -15.97810
      H1    18.92085   -5.70190  -16.37777
       H    12.93814  -10.84763   -9.29469
       O    13.51481  -11.04382   -8.52585
      H1    13.67142  -10.14567   -8.11698
       H    13.70847   -4.63419   -5.34513
       O    13.32351   -5.39292   -5.83590
      H1    13.03352   -6.01084   -5.14949
       H    13.60679    2.14545   -6.39301
       O    13.07137    1.32440   -6.55476
      H1    13.45530    1.15642   -7.42115
       H    17.75149   -5.50387  -14.12619
       O    17.90972   -5.21754  -13.24397
      H1    17.85190   -4.23731  -13.25305
       H    17.90205    0.32479  -11.15045
       O    18.14553    1.09543  -11.69164
      H1    18.95058    1.44165  -11.34266
       H    11.86824   -2.58319  -14.87137
       O    11.58895   -3.30778  -14.30863
      H1    11.71411   -4.00118  -14.96033
       H    14.59525   -0.81892  -11.48898
       O    15.13835   -0.02166  -11.48020
      H1    14.93816    0.31397  -10.57408
       H    13.39502   -9.24960   -3.69541
       O    13.93108   -9.27969   -2.88393
      H1    13.39345   -9.87080   -2.34737
       H    14.25495   -4.39849  -10.25579
       O    13.69764   -3.59990  -10.41719
      H1    12.80243   -3.94405  -10.41301
       H    16.25007   -1.06984  -10.53142
       O    17.16799   -1.48840  -10.38035
      H1    16.94009   -2.22529   -9.82105
       H    15.80882    0.28866   -3.21190
       O    15.24103   -0.46912   -3.17212
      H1    14.50091    0.01772   -3.55606
       H    15.77502   -6.58175   -7.32058
       O    15.53930   -7.00151   -6.48038
      H1    14.79559   -6.33767   -6.25431
       H    18.58481  -12.37387   -6.85088
       O    19.01627  -12.44026   -5.95967
      H1    19.21047  -13.35638   -5.98994
       H    10.89605   -9.53721  -10.54087
       O    11.47950  -10.28723  -10.62421
      H1    11.13510  -10.85096  -11.35386
       H    18.75194   -3.98586   -5.97715
       O    17.97661   -4.47973   -6.30903
      H1    17.21916   -3.94659   -5.94311
       H    13.96632   -3.03919  -12.00442
       O    13.97542   -2.52378  -12.83381
      H1    13.18811   -2.93046  -13.31622
       H    18.17645   -3.91654   -1.60551
       O    17.57933   -3.11848   -1.44650
      H1    17.71905   -2.67786   -2.33968
       H     8.45722   -5.18353   -6.83111
       O     8.48094   -4.57283   -7.55024
      H1     9.26432   -3.99759   -7.36330
       H    18.04096  -12.90799  -11.31246
       O    18.68497  -12.14558  -11.20003
      H1    19.33853  -12.50882  -10.54096
       H    17.81554   -9.97898  -13.55636
       O    18.46594  -10.66517  -13.60490
      H1    18.47676  -11.08545  -12.69407
       H    17.00325    1.99115  -10.77238
       O    16.55503    2.16995   -9.89784
      H1    17.26791    2.73181   -9.52530
       H    20.15437  -10.17167   -5.70083
       O    19.48697   -9.54409   -5.38816
      H1    18.67147  -10.07045   -5.46328
       H    17.05943  -12.63190   -8.40941
       O    17.64828  -11.89190   -8.51604
      H1    17.72261  -11.95898   -9.48894
       H    18.12272   -0.00502   -6.59242
       O    18.17902   -0.96094   -6.37752
      H1    17.31347   -1.24976   -6.71770
       H    15.34412    0.90848   -8.59444
       O    14.65888    0.23321   -8.80998
      H1    15.14224   -0.52255   -8.45398
       H    18.04220   -1.40293  -15.52681
       O    17.85603   -2.38849  -15.64172
      H1    17.58493   -2.51338  -14.73026
       H    15.42410   -5.75250   -9.69110
       O    15.74536   -5.21528   -8.99315
      H1    16.71705   -5.23922   -9.09965
       H    18.30932   -3.93294   -8.26892
       O    18.17524   -4.11150   -9.20476
      H1    18.90537   -3.62675   -9.67688
       H    16.78439  -10.01122   -6.77932
       O    16.60853   -9.89267   -5.85825
      H1    16.26139   -8.97919   -5.85620
       H    18.79268   -7.24486   -8.99432
       O    18.40369   -7.44104   -9.91839
      H1    18.79785   -6.90653  -10.57301
       H    17.30055   -2.07848  -12.10980
       O    17.09424   -2.56545  -12.91422
      H1    16.14607   -2.53978  -12.98663
       H    14.77068   -2.60534   -7.74972
       O    15.79578   -2.51315   -7.84391
      H1    15.84547   -3.38843   -8.30640
       H    12.84299    1.93949  -12.29900
       O    13.26827    1.39116  -12.96340
      H1    13.92286    0.95405  -12.41292
       H    10.37884   -6.58315   -9.03564
       O     9.45388   -6.69005   -8.74050
      H1     9.21444   -5.80156   -8.44928
       H    10.37590   -4.01962  -10.54619
       O    10.88410   -4.79886  -10.27382
      H1    10.79015   -5.33401  -11.04410
       H    10.95904   -6.73587   -3.86334
       O    11.76165   -7.15696   -4.19203
      H1    12.19120   -7.42573   -3.32019
       H    14.98266   -5.54984  -13.91535
       O    15.40724   -6.03523  -13.15626
      H1    16.27556   -5.59473  -13.20623
       H    12.75598   -1.46679   -4.51750
       O    12.30028   -2.33927   -4.54805
      H1    12.05437   -2.36103   -5.48192
       H    14.05889   -5.08194  -16.13100
       O    14.86177   -4.87500  -15.60655
      H1    15.41833   -5.63718  -15.81751
       H     9.32786   -5.94047  -12.22097
       O    10.24123   -5.90326  -12.63023
      H1    10.58014   -6.81740  -12.62475
       H    17.43857  -10.31730   -9.06587
       O    16.94118   -9.59968   -9.55048
      H1    17.61462   -8.87174   -9.54257
       H    12.94758   -4.40303   -7.52566
       O    12.83259   -3.44879   -7.70731
      H1    12.92708   -3.34895   -8.67966
       H    11.21672   -2.97399   -7.48563
       O    10.32738   -2.78663   -7.08679
      H1    10.20329   -1.83033   -7.22967
       H    10.17266   -7.81314   -7.29483
       O    10.84360   -8.43533   -6.99130
      H1    11.11221   -8.08896   -6.12574
       H    18.40693   -6.68336   -7.14127
       O    19.01071   -7.43290   -7.39840
      H1    19.02303   -7.95432   -6.56940
       H    15.72285   -5.70099   -2.30109
       O    15.12870   -5.10577   -1.85832
      H1    15.62679   -4.35757   -1.58175
       H    17.42121   -7.83031  -13.58802
       O    17.63285   -8.13793  -14.50877
      H1    18.56829   -8.38723  -14.28039
       H    18.25463   -8.90932   -1.98443
       O    18.39271   -8.21153   -1.37030
      H1    18.46941   -7.47289   -1.99051
       H    15.83326  -11.10340   -4.35732
       O    16.15226  -11.33533   -3.43824
      H1    15.68069  -10.67627   -2.90955
       H    19.25512    1.45733   -7.50766
       O    18.43361    1.70272   -7.10943
      H1    18.75390    1.86093   -6.18846
       H    17.42607   -1.25526   -3.52309
       O    18.25462   -1.67403   -3.63973
      H1    18.51696   -1.25646   -4.45447
       H    19.29926   -1.40680   -9.22555
       O    19.78399   -1.77280   -8.42336
      H1    19.25438   -1.56405   -7.61827
       H    15.31228   -9.63701  -10.72351
       O    14.63461   -9.42377  -11.38579
      H1    13.89988   -9.90880  -10.94236
       H    14.53652   -6.47004  -11.83754
       O    14.19983   -6.52624  -10.89674
      H1    14.42772   -7.37841  -10.49182
       H    12.56457   -7.36290  -11.72651
       O    12.01886   -7.93811  -12.31886
      H1    12.29125   -8.80764  -11.93530
       H    16.07669    0.28872  -12.95779
       O    16.42374    0.32010  -13.87120
      H1    17.25541    0.80481  -13.70687

