180
frame 6 | Written by MDAnalysis XYZWriter (release 2.4.3)
       H   -15.39746   12.94204   18.54710
       O   -15.30293   12.17602   17.99018
      H1   -15.02134   11.45720   18.58035
       H   -16.71293    7.18434   10.17900
       O   -16.19561    7.52403   10.95603
      H1   -16.89826    7.70294   11.56560
       H   -17.00151    4.90211   18.60368
       O   -16.24081    5.38003   18.32262
      H1   -15.99241    6.04528   18.99090
       H   -10.86474    6.02511   13.26361
       O   -11.25745    6.13936   14.09141
      H1   -11.56410    7.05877   14.09528
       H   -15.49440   13.46455   11.31716
       O   -15.59960   12.51478   11.03726
      H1   -16.16579   12.48208   10.25974
       H    -7.85093   13.14784   14.67109
       O    -8.04224   12.91783   15.64405
      H1    -8.69385   13.52664   15.85631
       H    -9.20630   10.47470   14.10032
       O    -9.64111   10.91310   14.82394
      H1    -8.98943   11.51498   15.22335
       H   -10.92580   13.71007   14.69536
       O   -11.27618   12.99129   14.17485
      H1   -10.66924   12.24278   14.37289
       H   -12.93712    2.92624   13.50413
       O   -12.45003    2.14026   13.17837
      H1   -12.14311    1.70028   13.97730
       H   -11.18417    8.74949   10.09727
       O   -10.97308    7.84934    9.81184
      H1   -10.50081    7.46170   10.57343
       H   -12.42369    1.41045   18.42218
       O   -11.54630    1.58352   18.07498
      H1   -10.86301    1.20258   18.58379
       H   -13.84284   12.15799   16.34119
       O   -13.55093   11.48170   15.76358
      H1   -12.84180   12.04599   15.35197
       H   -13.66434    4.03738   15.32323
       O   -13.43492    4.36248   14.41766
      H1   -12.65532    4.96767   14.46411
       H   -15.44298    8.84627    9.80637
       O   -15.28240    9.58244    9.19310
      H1   -15.01792   10.28079    9.81184
       H   -13.78847   14.97888   17.32045
       O   -14.42082   15.14018   16.59536
      H1   -14.38969   16.14204   16.50545
       H   -19.17230    5.58448   15.61100
       O   -18.93509    4.61468   15.53648
      H1   -18.38315    4.54079   14.73496
       H   -17.28364    2.36617   13.94978
       O   -17.18438    3.19542   13.49478
      H1   -16.59804    3.10860   12.74937
       H    -8.71656    9.57438    9.51828
       O    -8.54735   10.36668   10.10364
      H1    -8.51050    9.97193   10.95623
       H    -9.28436   13.96191   12.99651
       O    -8.30530   13.85741   13.10390
      H1    -7.98281   13.17883   12.45331
       H   -16.29991    6.90569   16.32273
       O   -15.48288    7.29580   15.87563
      H1   -15.60822    6.98687   14.96423
       H   -11.55195   10.35119   17.63325
       O   -12.15397   10.93108   18.11207
      H1   -12.75642   11.13987   17.38534
       H   -14.90948    2.37006   12.27171
       O   -15.36019    2.78536   11.57791
      H1   -15.54389    1.90242   11.04382
       H   -13.58341    9.96041   18.91143
       O   -14.41165    9.87920   19.42035
      H1   -14.73011    8.92294   19.39198
       H   -14.66930   10.43331   14.86092
       O   -15.14402    9.81220   14.31597
      H1   -15.39714    9.04149   14.91886
       H   -13.15019   13.97809   13.84189
       O   -13.60898   14.84691   13.94212
      H1   -13.79831   14.79674   14.90270
       H   -13.42591    8.72902   14.83193
       O   -12.52411    8.43940   14.72817
      H1   -12.27843    8.03169   15.56926
       H    -7.64361    1.73029   14.89317
       O    -6.86721    2.29120   14.86660
      H1    -7.10104    3.16977   14.33695
       H   -16.92747   11.05547   14.67839
       O   -17.84197   11.02164   14.88067
      H1   -18.05299   11.35661   15.75193
       H   -14.49191   10.43427   12.44341
       O   -13.92796   10.63423   11.70449
      H1   -14.42406   11.37418   11.32832
       H    -7.45744   10.99461   18.09809
       O    -8.42978   10.83124   18.34952
      H1    -8.45193   10.54185   19.24516
       H    -8.93024    5.00296   12.77119
       O    -9.55615    5.40253   12.16525
      H1    -9.87111    4.69213   11.54857
       H   -18.38694    9.80584   18.28554
       O   -18.94274    8.99291   18.33712
      H1   -19.80503    9.30533   17.99304
       H   -17.55460   13.17101   12.73683
       O   -17.35704   13.58258   13.60464
      H1   -17.50425   12.83210   14.22813
       H   -14.45111    1.90170   18.55795
       O   -14.32970    1.02943   18.17469
      H1   -14.58582    0.41881   18.90049
       H   -12.68517   12.64798   11.80967
       O   -12.77661   13.57829   11.61010
      H1   -12.97952   13.66069   10.69948
       H   -13.65806    6.87694   16.69865
       O   -12.85679    6.91441   17.24388
      H1   -12.43016    6.06233   17.12362
       H   -12.02585   12.85877   18.34018
       O   -12.55425   13.65436   18.46588
      H1   -11.88008   14.33529   18.41396
       H   -15.14134    6.90403   12.62594
       O   -15.43652    6.37759   13.40216
      H1   -14.75417    5.73310   13.58267
       H    -9.71759    7.91419   16.22371
       O    -9.40306    6.99979   16.14756
      H1   -10.02239    6.53421   15.63802
       H    -7.85796    7.21001   14.74028
       O    -7.04005    7.35106   14.24323
      H1    -6.41545    7.66039   14.93005
       H   -10.13724    9.72495   16.09566
       O   -10.39373    9.26772   16.89039
      H1    -9.75493    9.70977   17.48482
       H   -11.39864    3.79453    9.96633
       O   -10.84599    3.40881   10.63508
      H1   -11.38251    2.95346   11.25928
       H    -6.65467    5.29118   18.34534
       O    -7.17956    5.04813   19.08274
      H1    -7.00603    4.07273   19.22929
       H    -5.97108    5.33166   15.62850
       O    -5.55016    5.59320   16.44652
      H1    -4.69582    5.74309   16.12586
       H   -14.94663    4.23069   18.37663
       O   -14.13969    3.75278   18.66348
      H1   -13.36767    4.09016   18.21930
       H    -7.62926    8.71196   13.25123
       O    -8.19403    9.45163   12.86247
      H1    -7.56911   10.20456   12.94016
       H    -7.24555    5.58648   14.02473
       O    -7.29300    4.64427   13.72673
      H1    -6.44828    4.60770   13.23741
       H    -7.92457    6.68908   11.30673
       O    -7.71329    6.93166   10.37780
      H1    -6.81237    7.26187   10.26793
       H   -16.98359   11.99769   18.13134
       O   -17.89542   11.73895   17.85182
      H1   -18.54149   12.34608   18.27089
       H   -12.08663   10.14367    8.73186
       O   -11.64076   10.37717    9.54385
      H1   -12.40925   10.40432   10.18370
       H   -14.13662    7.17390   18.63821
       O   -14.65940    7.24360   19.41784
      H1   -13.95453    7.32790   20.11862
       H   -16.10932    4.48942   16.36790
       O   -15.95786    3.62188   16.01664
      H1   -16.55223    3.58665   15.27063
       H   -11.38964    3.40628   17.68752
       O   -11.71489    4.35057   17.63119
      H1   -11.48330    4.67597   18.56201
       H    -9.67005   12.80845   20.23477
       O    -9.06325   13.24058   19.64253
      H1    -8.78605   12.50386   19.03623
       H    -9.74829   11.94989   10.35096
       O   -10.04794   12.76317    9.87469
      H1   -10.90406   12.37912    9.68387
       H    -5.44158   11.88489   17.48094
       O    -6.09806   11.40654   16.97368
      H1    -6.71942   12.10793   16.71079
       H    -8.43948    6.28622   19.17475
       O    -9.12462    6.99439   19.28952
      H1    -9.34479    7.06535   18.32366
       H    -5.48188    9.90874   16.42565
       O    -5.12130    9.10535   15.95244
      H1    -4.18930    9.26542   15.83560
       H   -13.77360    6.32967    9.56812
       O   -13.66415    5.87734    8.76860
      H1   -13.80073    4.92589    8.96114
       H   -11.67764    1.17046   16.15572
       O   -11.60372    0.65859   15.36157
      H1   -12.22095   -0.09120   15.49505

