180
frame 7 | Written by MDAnalysis XYZWriter (release 2.4.3)
       H     5.82471    0.42328    5.41484
       O     6.26612   -0.16794    6.05563
      H1     5.58073   -0.75900    6.44724
       H    -0.24946    0.35215    6.28193
       O     0.00597    0.27475    5.32188
      H1    -0.63816   -0.32700    4.95529
       H     0.17185    3.36161    5.17755
       O    -0.69892    3.10733    5.55785
      H1    -0.69850    2.22496    5.18320
       H     0.56170   -2.94143    7.15975
       O     0.48363   -3.83403    6.80693
      H1     1.16951   -4.30371    7.37883
       H     3.78872    1.79443    9.72972
       O     4.22149    1.47170   10.52084
      H1     3.86584    2.12316   11.12329
       H     0.05430   -0.22092    0.06064
       O    -0.68651   -0.68166    0.48848
      H1    -1.33764   -0.45156   -0.17683
       H     5.52057   -2.42678    2.88570
       O     4.81938   -2.77083    2.29242
      H1     5.17201   -2.42968    1.43873
       H     1.96404    1.70531    7.81334
       O     1.80471    1.12989    8.55964
      H1     1.61351    1.72114    9.30259
       H     8.02350    3.10166    5.05582
       O     7.66949    2.43695    4.41389
      H1     8.37554    1.77919    4.64691
       H     4.94125    5.03812   10.51020
       O     5.38407    5.49445    9.73251
      H1     4.59858    5.41922    9.14473
       H     0.49880    4.01230    9.48104
       O     1.41709    3.71526    9.56335
      H1     1.85735    4.53511    9.91185
       H     5.75605    0.53420   10.56089
       O     6.41117   -0.20368   10.61034
      H1     6.08216   -0.77490   11.31657
       H     4.04998    4.29078    7.61589
       O     3.36482    4.91591    7.66367
      H1     2.59523    4.40040    7.93258
       H     0.09045    0.60469    8.19734
       O    -0.78443    0.40241    7.82621
      H1    -1.12332    0.13364    8.68923
       H     1.74417    0.98045    5.67538
       O     2.15377    1.88280    5.73772
      H1     3.04538    1.68989    5.37303
       H    11.91775   -0.91115    6.47902
       O    11.24737   -0.19725    6.51844
      H1    10.78237   -0.37296    5.64584
       H     2.96659   -3.15368    3.72214
       O     2.27208   -2.73459    4.22845
      H1     2.24633   -3.13207    5.10314
       H     3.64246   -1.52268   -0.90844
       O     3.67340   -2.50275   -1.01367
      H1     4.67710   -2.58791   -1.12136
       H     2.34384    6.84388    1.80176
       O     2.10838    7.42059    2.54503
      H1     1.57520    8.09523    2.09616
       H     7.23588   -4.44777    5.95723
       O     7.05091   -4.26837    5.03122
      H1     7.81863   -4.60995    4.57760
       H     6.67126    5.95501    0.19818
       O     6.58482    5.49118    1.01844
      H1     5.68739    5.18253    1.02997
       H     6.69864   -1.10259    4.48150
       O     6.90722   -1.59363    3.69755
      H1     7.02582   -2.49713    3.97762
       H    10.98427    0.11633   -0.60863
       O    10.46145    0.49206    0.17050
      H1    11.09747    1.15156    0.46715
       H     5.02641   -5.66585    2.15376
       O     5.84793   -5.22924    2.47081
      H1     5.69462   -4.30488    2.26290
       H     6.82020    2.57735   -2.39867
       O     6.49662    3.47315   -2.70970
      H1     6.94447    3.52386   -3.55149
       H    11.45935    5.29539    4.63790
       O    11.37580    4.56777    4.01630
      H1    12.18424    4.05809    4.15529
       H     9.26166    5.06736    7.09480
       O     9.01291    4.24187    6.70303
      H1     9.83758    3.80419    6.72996
       H     8.94740    1.05573   -0.45599
       O     8.08194    1.40736   -0.84434
      H1     8.27460    2.30766   -0.47240
       H     7.44934    7.71228    2.87935
       O     6.66238    7.15794    3.25375
      H1     6.45124    6.74649    2.39978
       H     3.34177    3.71844    1.36301
       O     3.85157    4.48890    1.48171
      H1     3.87505    4.63849    2.40782
       H     9.44551    4.72997    0.16527
       O     8.63127    4.27245   -0.12480
      H1     8.06059    4.63245    0.66104
       H     5.30730    2.53350    6.14550
       O     5.29406    2.92930    7.05201
      H1     5.99286    2.32866    7.41217
       H     1.71718    2.23058    4.10573
       O     1.45178    2.57970    3.25228
      H1     1.18764    1.75933    2.76341
       H     2.73258    6.51740   -0.60374
       O     1.99683    6.32191   -0.02623
      H1     2.18342    5.45429    0.34897
       H    -0.85319    5.60677    4.35280
       O    -1.57722    6.19036    4.00848
      H1    -2.29031    5.77153    4.45736
       H    11.11064    1.67844    7.04335
       O    11.38345    2.50679    6.69078
      H1    11.80625    2.88322    7.46404
       H     0.20258   -0.71683    2.10648
       O     0.91052   -0.23823    2.58605
      H1     0.78446   -0.50394    3.50053
       H     1.49627    4.95061    3.99065
       O     0.80501    5.28621    4.57164
      H1     1.22228    6.04618    4.97693
       H     2.92516    3.31871   -1.92988
       O     2.49401    3.29895   -0.99491
      H1     1.88065    2.53675   -1.05306
       H     7.17645   -2.47891   -0.80399
       O     6.50823   -2.93529   -0.28168
      H1     6.59014   -3.84608   -0.54585
       H    11.30180    2.32860    2.12766
       O    12.09209    2.28459    1.54085
      H1    12.83934    1.95023    2.00472
       H     9.43842   -1.84207    6.93130
       O     8.51384   -2.09504    7.07661
      H1     7.97284   -1.28842    7.22416
       H     2.39527   -0.35551    7.85870
       O     2.75271   -1.17222    7.47906
      H1     3.54520   -1.20079    7.92907
       H     5.22364    8.78124    7.66451
       O     4.61935    8.04350    7.62940
      H1     5.21703    7.34045    7.53345
       H     6.40289   -3.06700    8.94474
       O     7.12001   -3.65036    8.92083
      H1     7.61642   -3.32493    8.17132
       H     0.84421   -4.67288    3.25087
       O     0.91335   -4.09819    2.49022
      H1     1.48556   -3.38883    2.75748
       H     3.95401   -1.07137    2.26451
       O     3.47232   -0.23457    1.97476
      H1     2.61683   -0.26344    2.45603
       H     9.91050    3.74172    3.17862
       O     9.56129    2.87216    2.69743
      H1     8.75027    2.80614    3.22607
       H     3.37069   -0.23599    0.43442
       O     3.11892    0.09329   -0.53921
      H1     3.95533    0.64327   -0.65730
       H     8.98281   -0.53988    3.58899
       O     9.72662   -0.08668    4.02533
      H1    10.25049    0.16775    3.27838
       H     3.01634    7.81838    5.89726
       O     2.11462    7.67494    5.63114
      H1     1.98875    8.16388    4.81401
       H     5.08258    8.17582    3.01695
       O     4.32516    8.75196    3.13298
      H1     3.47299    8.28353    2.96625
       H     5.29540    2.57180   -0.19247
       O     5.23656    1.62230   -0.35589
      H1     6.15726    1.25711   -0.18408
       H     3.23087    4.66237    4.96686
       O     3.64643    5.33446    4.39780
      H1     4.60322    5.16904    4.60497
       H     7.95062    3.11995   10.19657
       O     7.54758    3.75251   10.79321
      H1     6.92896    4.17613   10.18124
       H     0.71016    1.12151   -1.96237
       O     0.77921    1.11090   -1.00787
      H1     1.66208    0.76611   -0.86211
       H     7.59714    5.27777    5.84937
       O     6.76238    5.33618    5.38377
      H1     6.86563    6.12424    4.82468
       H     4.42013   -1.81753    9.54025
       O     5.27794   -1.83893    8.99363
      H1     5.71758   -1.19658    9.56548
       H     5.87976    2.04608    4.35963
       O     4.91054    1.81425    4.23786
      H1     4.90678    1.49252    3.33819
       H     8.91183    1.68763    8.99882
       O     8.11107    2.04405    8.59743
      H1     8.48744    2.72011    8.03462

