180
frame 1 | Written by MDAnalysis XYZWriter (release 2.4.3)
       H    -2.50972  -10.24697  -14.16942
       O    -1.97818   -9.63517  -13.59098
      H1    -2.31625   -9.90189  -12.73687
       H    -2.26060   -3.40530  -13.67061
       O    -2.57066   -2.58535  -14.13136
      H1    -2.22224   -1.88933  -13.52383
       H    -2.33839  -11.42165  -15.96573
       O    -3.08954  -11.29053  -15.32287
      H1    -2.87652  -12.02127  -14.68260
       H    10.51554   -7.54193  -17.94655
       O    11.28239   -8.10157  -17.73883
      H1    11.68176   -8.10777  -18.61623
       H    -1.95366  -11.22386  -18.16830
       O    -1.50923  -11.17386  -17.28278
      H1    -0.60136  -11.35957  -17.46235
       H     7.52853    0.12865  -19.83469
       O     6.89281    0.03496  -19.10553
      H1     6.80615    0.99007  -18.76758
       H     6.35666   -6.56258  -11.40083
       O     7.26752   -6.32374  -11.74761
      H1     7.05179   -5.70043  -12.46352
       H     9.82167   -2.37052  -13.61783
       O     8.91788   -2.27430  -13.32636
      H1     8.46268   -1.78426  -14.04222
       H     2.10486  -12.08551  -17.22501
       O     2.99704  -11.78527  -17.29552
      H1     3.22547  -12.20928  -18.12803
       H     7.55079    0.05332  -15.03598
       O     8.30695   -0.08849  -15.62256
      H1     9.03801    0.40884  -15.16295
       H     0.72438   -2.59236  -12.67530
       O     0.60599   -3.00698  -11.77008
      H1     1.12537   -3.76557  -11.88317
       H     4.02935   -1.86381  -19.12780
       O     3.17743   -1.67109  -19.57429
      H1     2.88482   -2.54161  -19.83811
       H     3.69205   -6.51908  -18.67899
       O     4.58452   -6.86769  -18.87565
      H1     4.65085   -7.02799  -19.83863
       H     3.24932    1.98883  -20.19744
       O     2.64994    1.90547  -19.46404
      H1     3.13107    1.25502  -18.91824
       H    -1.02902   -7.83197  -12.73154
       O    -0.35531   -7.08050  -12.75134
      H1     0.36370   -7.36381  -12.20284
       H     4.07336   -4.59408  -14.86965
       O     4.21194   -5.43747  -15.23590
      H1     5.17680   -5.49639  -15.26415
       H     9.30617   -8.26104  -14.72993
       O     8.61801   -7.85563  -15.25867
      H1     9.00033   -6.96443  -15.36085
       H     2.35875   -9.86181  -11.30578
       O     1.73997   -9.40432  -10.75248
      H1     2.03562   -8.45753  -10.83772
       H     2.18151   -6.14572  -10.79862
       O     2.16801   -7.01544  -11.21573
      H1     2.63967   -6.83001  -12.05532
       H     2.60853   -0.23796  -17.34864
       O     3.19698    0.36996  -16.91083
      H1     2.53872    0.78923  -16.25917
       H    -0.89666   -2.11700  -16.48620
       O    -1.22195   -3.00110  -16.52647
      H1    -1.67658   -3.09155  -15.65687
       H     2.42580   -2.16622  -11.48508
       O     3.25878   -1.98056  -11.97023
      H1     3.17091   -1.03071  -12.08928
       H    11.17891   -5.43236  -15.73388
       O    10.41036   -5.51584  -15.10609
      H1    10.79706   -5.63210  -14.24273
       H    -0.29168    0.35185  -19.56401
       O    -1.11323    0.18207  -19.00156
      H1    -1.35066   -0.74587  -19.19684
       H     8.50690   -9.01692  -16.76604
       O     8.60877   -9.44259  -17.65498
      H1     7.81462   -9.91313  -17.84906
       H    -3.07816   -7.20487  -16.19352
       O    -3.96558   -7.41002  -15.81963
      H1    -4.42313   -7.85976  -16.55397
       H    -1.10283   -4.08560  -12.03110
       O    -1.74429   -4.52522  -12.65075
      H1    -1.40883   -5.45132  -12.56347
       H     0.36116   -6.37339  -15.79519
       O     0.33538   -7.27920  -15.46472
      H1     0.09450   -7.04337  -14.52287
       H     9.20500   -4.60158  -15.76738
       O     8.71882   -4.02930  -16.46858
      H1     7.89987   -4.60378  -16.64758
       H    -2.69362   -3.44324  -17.36970
       O    -3.35848   -3.61775  -18.06502
      H1    -3.33930   -2.90392  -18.70234
       H     4.78798  -13.23789  -19.34733
       O     4.41786  -12.38954  -19.66502
      H1     4.90220  -11.65380  -19.23748
       H     1.25573   -5.59976  -18.83815
       O     2.11079   -5.27875  -18.50844
      H1     2.28341   -4.60722  -19.21181
       H     5.70336   -8.85914  -13.14604
       O     6.34531   -9.57347  -13.20303
      H1     7.01436   -9.16999  -13.72137
       H    -1.33537   -9.25700  -16.92491
       O    -1.49969   -8.31871  -17.19386
      H1    -1.15595   -7.77145  -16.41681
       H     5.74631   -9.87429  -19.22514
       O     6.00053  -10.61606  -18.65920
      H1     5.61598  -10.54390  -17.75697
       H    11.52466  -10.07945  -17.15091
       O    11.02141  -10.89623  -17.11264
      H1    10.10828  -10.59298  -17.11095
       H     9.50328   -6.16540  -12.33198
       O    10.44302   -5.92195  -12.12495
      H1    10.88278   -6.73927  -11.89220
       H     3.95448   -2.69539  -13.58026
       O     4.32785   -2.89030  -14.41753
      H1     4.69349   -2.05129  -14.77934
       H     8.46149   -6.74890  -17.90830
       O     9.30914   -6.38190  -18.21140
      H1     9.27339   -5.47076  -17.86247
       H     1.05543  -13.51563  -19.47293
       O     0.97063  -12.59454  -19.06511
      H1     0.47138  -12.18866  -19.78965
       H     6.49092  -13.70087  -15.79202
       O     5.69174  -13.15334  -15.83008
      H1     5.91326  -12.48447  -15.14352
       H     2.38738  -14.30394  -15.72995
       O     2.88874  -13.92409  -15.03150
      H1     3.58502  -13.52982  -15.51252
       H     5.90542   -1.37090  -18.65891
       O     5.59112   -2.19960  -18.20219
      H1     6.23277   -2.90554  -18.50974
       H     6.62632   -3.99157  -14.11839
       O     7.22204   -4.52513  -13.57225
      H1     7.92867   -3.83050  -13.48711
       H     6.70887  -11.30211  -13.72508
       O     7.14979  -12.15697  -14.02377
      H1     7.02571  -12.67117  -13.17135
       H     6.53548   -7.16547  -16.67923
       O     6.50107   -6.29701  -17.00832
      H1     5.63691   -6.23891  -17.49666
       H     1.57475   -8.87714  -14.88718
       O     2.11172   -9.47302  -14.29959
      H1     1.47205  -10.14988  -14.06346
       H     5.02824   -6.97796   -9.89051
       O     5.16956   -7.63270  -10.59206
      H1     4.44927   -7.59002  -11.22886
       H    -0.51545  -10.32197  -13.08992
       O     0.17303  -10.94590  -12.73748
      H1     0.62709  -10.44370  -11.99881
       H     4.08669   -6.94521  -13.80112
       O     3.91923   -7.68156  -13.15969
      H1     3.20435   -8.19554  -13.61437
       H     4.73583   -0.34194  -16.46283
       O     5.45378   -0.76038  -15.89479
      H1     5.82861   -1.35196  -16.57123
       H     3.12444  -10.04169  -17.96487
       O     3.05145   -9.52280  -18.77641
      H1     3.81930   -8.94263  -18.70334
       H     0.40365    0.44679  -16.54957
       O     0.22259   -0.50077  -16.72414
      H1    -0.32887   -0.31906  -17.53776
       H    -4.47751  -10.21415  -16.10829
       O    -4.80491   -9.98695  -16.96452
      H1    -4.08038   -9.98608  -17.56277
       H     4.99692  -13.83361  -17.39627
       O     4.85539  -14.50399  -18.13609
      H1     5.74183  -14.86776  -18.29327
       H     9.19810   -1.03026  -16.77752
       O     9.52662   -1.71696  -17.42696
      H1     9.06779   -2.55996  -17.26906
       H     1.21122   -4.79737  -16.87233
       O     0.75648   -4.77847  -16.03036
      H1     0.04612   -4.11471  -16.16869
       H     3.69236  -10.86251  -15.96906
       O     4.56342  -10.50785  -15.73883
      H1     4.34309   -9.90204  -15.00189
       H     4.03961  -11.66206  -11.92046
       O     4.19019  -10.84207  -11.48215
      H1     4.75191  -10.26514  -12.03990
       H     1.25155   -3.16561  -14.91612
       O     0.83656   -2.37831  -14.50503
      H1     0.76314   -1.74022  -15.30064

