180
frame 5 | Written by MDAnalysis XYZWriter (release 2.4.3)
       H    -3.65755    4.25493    5.30810
       O    -3.19523    4.67495    4.52785
      H1    -3.69338    5.50304    4.43463
       H    -6.45974    2.09008    9.45901
       O    -6.78235    1.73772   10.29660
      H1    -7.70823    1.96627   10.36087
       H    -3.84624    6.21165   10.51792
       O    -3.37766    6.53755    9.72955
      H1    -4.03859    6.94482    9.18433
       H    -9.52189    8.01886   13.54852
       O    -8.91055    8.28183   12.80668
      H1    -8.07138    8.31287   13.25373
       H    -6.91939    8.27877    8.03214
       O    -6.63688    9.14880    7.82561
      H1    -7.39822    9.68043    8.14050
       H    -3.82764    5.17081    8.15733
       O    -3.73875    5.15028    7.18085
      H1    -2.91756    4.63642    7.18017
       H   -12.51530    2.57981    5.12004
       O   -12.65613    2.10838    5.95775
      H1   -12.79121    1.18731    5.60652
       H    -9.31888   11.13250    8.71626
       O    -8.91124   10.34178    8.89298
      H1    -9.57016    9.61662    8.94296
       H    -4.13820    3.07436   11.43133
       O    -4.72702    3.45167   10.75587
      H1    -5.49618    2.89590   10.98532
       H    -9.93489    4.95207    9.67220
       O    -9.46607    5.87062    9.80532
      H1    -9.00719    5.71575   10.62742
       H    -9.13685    3.68700   14.12384
       O    -8.33701    3.42509   13.59630
      H1    -8.19402    2.52251   13.93281
       H   -11.17473    3.10497    9.07242
       O   -11.28841    3.94007    8.61444
      H1   -11.42004    3.66473    7.65956
       H    -9.01608    3.03034    6.59241
       O    -8.51702    2.35503    7.09150
      H1    -9.22075    1.84192    7.48583
       H    -6.13418    6.55493   13.60154
       O    -6.78912    6.97877   14.20497
      H1    -6.88868    6.28588   14.83945
       H    -6.32404    2.98373    6.89158
       O    -5.39222    3.01988    7.08581
      H1    -5.13175    3.97151    7.13772
       H   -11.27824    9.26963    7.76781
       O   -11.13548    8.49614    8.35864
      H1   -10.65868    7.84799    7.77858
       H   -11.19859    0.18371    8.21336
       O   -10.90013    1.03725    7.87960
      H1   -11.49779    1.26519    7.08796
       H    -7.67664    4.57127    5.24942
       O    -7.13218    4.83638    6.01526
      H1    -6.26524    5.13964    5.67234
       H    -5.37110    7.62017    4.95179
       O    -5.07859    6.74804    4.63573
      H1    -5.72850    6.44995    4.00058
       H    -5.59197    9.40981    1.84193
       O    -6.34807    9.37309    1.20654
      H1    -7.07345    9.07038    1.81432
       H   -10.02510    9.63543    3.21131
       O   -10.24921    9.72785    2.27583
      H1   -10.71578    8.94511    2.04751
       H   -10.92863    7.04307   11.05086
       O   -11.90715    7.29503   11.26549
      H1   -12.29638    6.89784   10.42367
       H   -10.84492    6.11821    3.11928
       O   -10.17477    5.46583    3.16784
      H1   -10.51855    4.85905    2.49044
       H    -6.88864    1.43713    4.08864
       O    -7.80801    1.60826    4.03318
      H1    -8.03712    0.67642    4.13075
       H    -8.50216    8.85920    4.89387
       O    -9.44902    8.91272    4.86691
      H1    -9.60262    9.74886    5.30323
       H    -8.14668    6.39442   12.42687
       O    -7.68606    5.75586   11.87103
      H1    -7.91974    4.90790   12.35125
       H    -6.63822    9.37750    6.08900
       O    -6.68858    9.27360    5.08344
      H1    -6.46246   10.14859    4.80241
       H    -1.53911    6.54922   10.28513
       O    -0.85727    6.56529   10.95021
      H1    -0.42231    7.40095   10.79311
       H    -7.47703   10.89389   10.02315
       O    -7.12610   11.27965   10.82275
      H1    -6.46832   11.85297   10.34402
       H    -9.10989    2.66275   11.74085
       O    -9.69232    2.23348   11.08953
      H1   -10.58614    2.38057   11.46687
       H   -12.43346    5.42229    8.63390
       O   -13.25255    5.83244    8.48913
      H1   -13.27957    6.04492    7.52498
       H    -8.54640    5.96445    2.26848
       O    -7.61353    6.23169    2.14102
      H1    -6.99056    5.51900    2.25986
       H    -6.45422   13.26615    8.27802
       O    -5.88574   12.49851    8.19814
      H1    -5.33692   12.71939    9.01233
       H    -6.02355   10.00360   11.63791
       O    -5.30207    9.38304   11.83833
      H1    -4.57011    9.81133   11.30705
       H    -1.84047    2.29989    7.62535
       O    -1.91109    2.79965    6.81068
      H1    -1.05394    3.25434    6.77878
       H    -9.23073   12.25899    5.70144
       O    -9.98952   11.63171    5.60911
      H1   -10.18627   11.80048    4.64345
       H    -4.78565   -1.10590    7.32239
       O    -5.61892   -0.65121    7.17583
      H1    -5.39560    0.26158    7.13602
       H    -8.81259   -1.04274    9.55272
       O    -8.11460   -0.92010    8.93048
      H1    -7.58172   -0.21570    9.34024
       H    -0.65895    4.42846    2.79241
       O    -1.46010    4.96758    2.58178
      H1    -1.99771    4.77070    3.41367
       H    -5.39217   11.93704    4.46287
       O    -6.37003   11.75121    4.30926
      H1    -6.82223   12.42015    4.79916
       H    -7.48160    5.85883    7.41344
       O    -7.58465    6.61717    8.03938
      H1    -8.28323    6.39938    8.68542
       H   -10.31998    0.83536    3.07047
       O   -10.70878    1.63746    3.47635
      H1   -10.03664    1.84058    4.17684
       H    -6.35725   -0.14651   12.78526
       O    -6.96610   -0.30629   12.06183
      H1    -6.70528    0.42582   11.44159
       H    -3.78767    5.28485   14.79271
       O    -4.11182    4.62136   14.13682
      H1    -4.27605    5.10968   13.33052
       H   -10.28468    3.27272    1.07726
       O   -11.11454    3.39533    1.51686
      H1   -11.08476    2.79314    2.32428
       H   -10.00019    4.42794    4.75036
       O    -9.99130    4.15025    5.64962
      H1    -9.96275    4.98771    6.13967
       H    -3.58480    9.17853    7.51962
       O    -4.08665    8.39246    7.30857
      H1    -4.97520    8.63526    7.31185
       H    -8.20599    7.18459    0.73159
       O    -8.48601    7.53944   -0.13889
      H1    -8.62566    8.45885    0.10299
       H   -11.10173    7.88012    4.23317
       O   -11.86429    7.32737    3.94138
      H1   -12.11284    6.95065    4.78930
       H   -13.99786    4.03145    9.11128
       O   -14.60495    3.43128    9.57830
      H1   -14.45592    2.49744    9.17496
       H    -5.33137    7.45168   11.90857
       O    -5.18510    6.48392   11.91693
      H1    -6.10123    6.24202   11.69761
       H    -2.35335    7.09569    6.84170
       O    -1.35775    7.23357    6.62928
      H1    -1.27402    7.98846    6.02573
       H   -14.26865    6.80796    6.11486
       O   -13.54402    6.22218    5.88751
      H1   -14.00457    5.38618    5.64822
       H    -9.60390    7.27123    6.01115
       O    -9.86794    6.59604    6.62083
      H1    -8.99887    6.63375    7.15364
       H    -9.14979    0.40383    6.08397
       O    -8.95552   -0.42074    5.64322
      H1    -9.36652   -1.06506    6.20095
       H    -4.24562    2.16017    9.84731
       O    -3.90989    1.60672    9.14846
      H1    -3.99490    2.24364    8.43497
       H   -12.19623    9.19761   11.36741
       O   -12.79334    9.95697   11.16473
      H1   -13.07715   10.12383   12.12290
       H    -6.38636    3.03723    2.28776
       O    -6.21387    3.93450    2.56601
      H1    -5.29049    4.03677    2.34622
       H   -14.01134    9.17157   10.10236
       O   -14.61814    8.57933    9.58014
      H1   -13.88743    8.05523    9.14662
       H    -4.90099    2.18426    5.05975
       O    -4.99988    1.84636    4.12012
      H1    -4.66630    2.59638    3.59413

