180
frame 3 | Written by MDAnalysis XYZWriter (release 2.4.3)
       H     5.42380   -1.46190    7.09424
       O     5.42008   -2.32389    6.69622
      H1     5.17755   -2.92438    7.43659
       H     8.51616   -9.12821   -2.14329
       O     8.15760   -9.16065   -1.22138
      H1     7.20610   -9.35440   -1.26785
       H    12.26421   -7.57239    2.72786
       O    12.73738   -7.98237    3.48707
      H1    13.49249   -8.35151    3.07993
       H     7.97257  -12.97467    3.25119
       O     8.95392  -12.88247    3.15597
      H1     9.06262  -11.87802    3.22236
       H     6.57788   -4.10587    2.45212
       O     5.84858   -3.96624    1.82512
      H1     6.18847   -3.38532    1.12827
       H     9.15860   -8.68201    9.73880
       O     9.57333   -7.89375    9.34662
      H1    10.18378   -7.64832   10.10363
       H     5.96616    1.27033    2.47751
       O     6.92689    1.18339    2.55196
      H1     7.04146    0.73946    3.37975
       H     9.09381   -9.81866    4.27731
       O     8.65068  -10.17889    3.51658
      H1     7.70289  -10.12784    3.78772
       H    12.11725   -5.60012   -1.16672
       O    12.35201   -4.59654   -1.11370
      H1    13.25301   -4.67856   -1.49684
       H     7.01571  -10.23890    7.39336
       O     6.10643  -10.37037    6.92011
      H1     6.44997  -10.94201    6.21260
       H    11.62881   -7.23335   -0.36789
       O    12.02101   -7.47752   -1.19959
      H1    12.87390   -7.82751   -0.87212
       H    11.92577   -3.85708    0.36307
       O    11.56828   -3.91221    1.27185
      H1    11.07230   -3.09502    1.37980
       H    10.47257   -1.01289    5.76324
       O    10.11558   -0.41125    6.39071
      H1     9.37442   -0.08674    5.89296
       H     4.67662   -3.18264    2.96068
       O     4.01928   -2.71540    3.53085
      H1     3.36251   -3.41818    3.76513
       H     3.68876   -2.78311   -0.60792
       O     3.20440   -3.61737   -0.51183
      H1     3.80922   -4.09336    0.08875
       H     4.79837   -9.34745    6.12236
       O     4.02677   -8.91789    5.78968
      H1     3.36389   -9.55541    5.60789
       H     8.53847   -4.96657    3.59983
       O     7.56866   -5.06039    3.70136
      H1     7.73679   -5.75142    4.36582
       H    13.69064   -5.57699    4.47005
       O    13.08242   -5.99610    5.09854
      H1    12.63811   -6.55782    4.44385
       H     2.30891   -8.15671    6.46768
       O     1.39641   -7.88783    6.50547
      H1     1.22321   -8.13736    5.55791
       H     6.14566   -7.69996    9.04489
       O     5.97094   -8.49125    9.58945
      H1     5.21687   -8.19117   10.11769
       H     6.62293   -2.76040    5.77573
       O     7.49189   -2.68509    5.26448
      H1     7.55509   -3.58152    4.84185
       H     9.90252   -6.99296   -1.15041
       O     9.48929   -6.57952   -0.40145
      H1     8.56317   -6.90412   -0.52076
       H     3.40494   -7.62972    0.33206
       O     3.66579   -8.34014    0.96562
      H1     3.99146   -7.80861    1.68241
       H     6.56505   -6.65567    0.74964
       O     6.39137   -6.15833   -0.08577
      H1     6.01244   -5.32577    0.20564
       H     2.77515   -9.83885    1.55458
       O     2.54920  -10.60396    2.12885
      H1     3.31551  -10.72923    2.68882
       H    10.00037   -7.92115    5.65622
       O     9.78905   -8.88098    5.72953
      H1    10.73341   -9.10782    5.88870
       H    12.28684  -10.14014    2.86254
       O    12.67083  -11.00597    2.60455
      H1    12.38898  -11.00333    1.64135
       H     5.84393   -6.12073   -3.02526
       O     5.20371   -6.53700   -2.37167
      H1     5.68532   -6.36830   -1.54679
       H     5.92729  -11.66644    3.28563
       O     5.38077  -10.91851    3.42756
      H1     5.43096  -10.53774    2.50691
       H     9.65928   -0.63061    0.84938
       O    10.14379   -1.40070    1.16864
      H1    10.85850   -0.99536    1.74725
       H     8.98941   -4.26091   -1.28226
       O     8.51973   -3.44842   -1.55075
      H1     9.34502   -2.88373   -1.52062
       H     5.16843    0.09265    6.32524
       O     5.36228    0.41358    7.19205
      H1     6.19579    0.85034    6.95553
       H    12.23379   -9.37773    7.17384
       O    12.50673   -9.34639    6.24218
      H1    12.97548   -8.49728    6.26985
       H     8.45497  -11.28653    7.11943
       O     8.64473  -10.52612    7.72463
      H1     8.85156   -9.79025    7.12904
       H     2.60324   -5.95837    8.65347
       O     1.76408   -5.85636    8.20302
      H1     1.71782   -6.71834    7.74553
       H     6.35718   -2.00173   -0.42153
       O     6.13080   -2.89631   -0.73147
      H1     7.04324   -3.30285   -0.89306
       H     7.34056   -5.74228    8.63202
       O     7.55137   -6.59802    8.25379
      H1     8.33402   -7.00192    8.64363
       H     9.60685   -1.92434    7.15880
       O     9.24855   -2.83084    7.23691
      H1     8.73789   -3.06327    6.41341
       H     2.84387   -1.03695    7.13139
       O     2.83469   -1.91588    6.70550
      H1     3.74050   -2.09655    6.52115
       H     7.15623   -3.57121    9.53365
       O     7.91028   -4.12535    9.34199
      H1     8.37095   -3.70612    8.57687
       H     1.69767   -3.84797    0.12584
       O     0.76832   -4.14128    0.14179
      H1     0.51413   -3.65437    0.95061
       H     4.45235   -6.33467    3.63004
       O     4.75522   -7.23179    3.45386
      H1     4.56525   -7.83195    4.18702
       H    12.28063   -6.97694    8.36184
       O    12.40979   -7.89476    8.63376
      H1    11.50257   -8.17991    8.69762
       H     2.10566   -7.11774   -0.92681
       O     2.84535   -6.55521   -0.78106
      H1     3.27288   -6.48689   -1.63289
       H     1.04764   -9.19148    3.41014
       O     1.17831   -8.34083    3.82602
      H1     1.07907   -7.74956    3.04310
       H     2.81411   -0.60709    2.18648
       O     3.40579   -0.14662    1.57603
      H1     2.81782    0.59849    1.32514
       H     6.50733   -9.38402    1.01051
       O     6.18482  -10.23714    0.68022
      H1     5.40534   -9.91063    0.26041
       H     1.24979   -4.58874    4.46064
       O     1.83153   -4.47270    3.64770
      H1     1.23621   -3.82789    3.07462
       H    11.13484   -5.43142    1.37261
       O    11.24367   -6.43056    1.51242
      H1    10.43134   -6.73353    1.08807
       H    12.40786   -1.83359    4.54469
       O    11.90912   -2.60266    4.94455
      H1    12.48896   -2.86857    5.73744
       H     8.28122   -1.04330    4.22377
       O     8.97240   -0.49892    3.84630
      H1     9.15480   -1.03876    3.03365
       H     7.16971   -0.09102    1.04733
       O     7.16195   -0.33208    0.13298
      H1     7.97589    0.21001   -0.09712
       H    11.00625   -4.36952    7.90207
       O    11.49918   -5.19340    7.75990
      H1    11.69485   -5.12681    6.81152
       H     6.36829   -7.50332    2.50180
       O     7.21737   -7.53505    2.04399
      H1     7.69041   -6.88874    2.52811
       H     8.56635   -6.05532    6.96498
       O     8.91663   -6.02019    6.01286
      H1     9.82356   -5.70098    6.16727
       H    12.51690   -0.02512    1.92878
       O    12.31992   -0.77773    2.54214
      H1    12.99761   -1.48538    2.43797
       H    14.93273   -5.36047    2.57037
       O    14.09803   -4.80925    2.50335
      H1    13.43071   -5.43979    2.20908
       H     4.19089   -3.91884    9.57505
       O     4.84284   -3.51284    9.06816
      H1     4.90923   -2.65225    9.43933
       H    10.77078   -4.86119    3.12163
       O    10.11467   -4.48956    3.74912
      H1    10.70638   -3.79602    4.07937
       H     4.33169   -0.00360    3.42555
       O     4.31571   -0.15260    4.38843
      H1     4.32716   -1.09647    4.33348

