180
frame 7 | Written by MDAnalysis XYZWriter (release 2.4.3)
       H     5.82471    0.42328    5.41484
       O     6.26612   -0.16794    6.05563
      H1     5.58073   -0.75900    6.44724
       H    12.10194    4.94936    9.34284
       O    12.51057    4.56818    8.51239
      H1    12.42713    5.28991    7.87679
       H     3.78872    1.79443    9.72972
       O     4.22149    1.47170   10.52084
      H1     3.86584    2.12316   11.12329
       H     8.23531   -0.62502   13.77880
       O     9.09241   -0.21642   13.74288
      H1     9.03078    0.51917   14.35765
       H     1.96404    1.70531    7.81334
       O     1.80471    1.12989    8.55964
      H1     1.61351    1.72114    9.30259
       H    13.49605    1.76960   11.59004
       O    13.21914    1.29133   10.73683
      H1    13.50001    0.40052   10.98252
       H    13.70199    6.42923   10.50460
       O    14.40648    5.68943   10.50756
      H1    14.12356    5.14811    9.76193
       H     9.19086    3.80661   11.75141
       O    10.03426    3.43763   12.03629
      H1    10.12547    2.78573   11.30071
       H     9.29643    8.69255    5.61864
       O    10.04480    8.12219    5.59813
      H1     9.97697    7.74199    6.48523
       H    15.50360   -0.20948    8.76300
       O    15.10791   -0.30632    7.91388
      H1    14.69573    0.56254    7.79640
       H     8.02350    3.10166    5.05582
       O     7.66949    2.43695    4.41389
      H1     8.37554    1.77919    4.64691
       H     9.41557   -1.22545   10.51565
       O     9.98581   -1.02352   11.28858
      H1     9.36081   -0.47654   11.83634
       H     4.94125    5.03812   10.51020
       O     5.38407    5.49445    9.73251
      H1     4.59858    5.41922    9.14473
       H     3.93597    7.64405    9.28156
       O     3.47673    7.82329   10.12994
      H1     4.17869    7.70741   10.85228
       H     0.49880    4.01230    9.48104
       O     1.41709    3.71526    9.56335
      H1     1.85735    4.53511    9.91185
       H     5.75605    0.53420   10.56089
       O     6.41117   -0.20368   10.61034
      H1     6.08216   -0.77490   11.31657
       H     4.04998    4.29078    7.61589
       O     3.36482    4.91591    7.66367
      H1     2.59523    4.40040    7.93258
       H    13.64385    1.82246    8.83697
       O    14.12309    2.29559    8.13801
      H1    13.48221    2.91808    7.76908
       H     6.53877    7.51298   12.08497
       O     5.61481    7.36187   12.34757
      H1     5.72111    6.38988   12.48930
       H     1.12985    0.91012   12.06498
       O     1.49258    0.28328   11.36002
      H1     2.27492    0.75812   11.04506
       H     1.74417    0.98045    5.67538
       O     2.15377    1.88280    5.73772
      H1     3.04538    1.68989    5.37303
       H    11.91775   -0.91115    6.47902
       O    11.24737   -0.19725    6.51844
      H1    10.78237   -0.37296    5.64584
       H     5.87275   -1.35407   13.92736
       O     6.65584   -1.62642   13.48912
      H1     6.62953   -2.60843   13.59112
       H     2.97328    6.15481   11.24227
       O     3.10680    5.15841   11.27102
      H1     2.57257    4.84963   12.01665
       H     7.23588   -4.44777    5.95723
       O     7.05091   -4.26837    5.03122
      H1     7.81863   -4.60995    4.57760
       H     6.75607    2.24265   13.81221
       O     6.07482    2.18795   14.49522
      H1     6.11084    2.98149   15.02373
       H     6.69864   -1.10259    4.48150
       O     6.90722   -1.59363    3.69755
      H1     7.02582   -2.49713    3.97762
       H    11.97861   -1.14052   11.43653
       O    12.90528   -1.41530   11.39193
      H1    13.11440   -1.54214   12.31834
       H    12.71426   -3.54399   10.13752
       O    11.99938   -3.99257   10.61061
      H1    11.78546   -3.22229   11.13835
       H     8.53692    7.09486   11.15749
       O     8.49031    6.89268   12.11678
      H1     9.23147    7.37165   12.47307
       H    11.56943    6.31372   10.90533
       O    10.96136    5.68129   10.49536
      H1    10.74847    5.12246   11.29806
       H    12.34951    2.41858   13.82965
       O    12.54833    3.09873   13.21046
      H1    11.65086    3.35922   12.96149
       H    11.45935    5.29539    4.63790
       O    11.37580    4.56777    4.01630
      H1    12.18424    4.05809    4.15529
       H     9.26166    5.06736    7.09480
       O     9.01291    4.24187    6.70303
      H1     9.83758    3.80419    6.72996
       H     5.30730    2.53350    6.14550
       O     5.29406    2.92930    7.05201
      H1     5.99286    2.32866    7.41217
       H    11.11064    1.67844    7.04335
       O    11.38345    2.50679    6.69078
      H1    11.80625    2.88322    7.46404
       H    11.38157    1.63892   10.16713
       O    10.50514    1.34983    9.95588
      H1    10.44579    0.57242   10.52683
       H     4.60027    2.07569   13.66126
       O     3.91122    1.56669   13.17694
      H1     3.96859    0.73287   13.65223
       H    11.30180    2.32860    2.12766
       O    12.09209    2.28459    1.54085
      H1    12.83934    1.95023    2.00472
       H    13.53403    7.18359    6.54953
       O    12.83694    6.54312    6.25719
      H1    12.86795    6.72639    5.32566
       H     9.43842   -1.84207    6.93130
       O     8.51384   -2.09504    7.07661
      H1     7.97284   -1.28842    7.22416
       H     2.39527   -0.35551    7.85870
       O     2.75271   -1.17222    7.47906
      H1     3.54520   -1.20079    7.92907
       H     5.22364    8.78124    7.66451
       O     4.61935    8.04350    7.62940
      H1     5.21703    7.34045    7.53345
       H     6.40289   -3.06700    8.94474
       O     7.12001   -3.65036    8.92083
      H1     7.61642   -3.32493    8.17132
       H     9.91050    3.74172    3.17862
       O     9.56129    2.87216    2.69743
      H1     8.75027    2.80614    3.22607
       H    10.11217    6.83448    8.89419
       O     9.68371    6.91307    8.05422
      H1     8.91664    7.43851    8.32951
       H    13.93424   -2.25254    6.10219
       O    12.97906   -2.51289    6.32018
      H1    13.17315   -2.88908    7.15326
       H     8.98281   -0.53988    3.58899
       O     9.72662   -0.08668    4.02533
      H1    10.25049    0.16775    3.27838
       H     6.77208    8.26196    9.33139
       O     7.31733    7.43943    9.23568
      H1     6.58239    6.81445    9.40116
       H     6.50806    5.18233   13.96472
       O     6.43611    4.89908   13.03912
      H1     7.36781    5.08680   12.74376
       H    12.44843    2.20080    5.36138
       O    13.25711    2.34359    4.72680
      H1    13.25949    1.53511    4.18307
       H     3.23087    4.66237    4.96686
       O     3.64643    5.33446    4.39780
      H1     4.60322    5.16904    4.60497
       H     7.95062    3.11995   10.19657
       O     7.54758    3.75251   10.79321
      H1     6.92896    4.17613   10.18124
       H     2.68035    2.93939   13.55861
       O     2.01945    3.60100   13.58605
      H1     2.05910    3.82225   14.55737
       H     7.59714    5.27777    5.84937
       O     6.76238    5.33618    5.38377
      H1     6.86563    6.12424    4.82468
       H    10.32416   -3.44924   13.82379
       O    10.97089   -3.03206   13.18752
      H1    10.48328   -2.26658   12.83354
       H     4.42013   -1.81753    9.54025
       O     5.27794   -1.83893    8.99363
      H1     5.71758   -1.19658    9.56548
       H     5.72686   -4.39928   10.59740
       O     5.24389   -4.43413   11.41365
      H1     4.51642   -5.07598   11.11440
       H     5.87976    2.04608    4.35963
       O     4.91054    1.81425    4.23786
      H1     4.90678    1.49252    3.33819
       H     8.91183    1.68763    8.99882
       O     8.11107    2.04405    8.59743
      H1     8.48744    2.72011    8.03462

