180
frame 2 | Written by MDAnalysis XYZWriter (release 2.4.3)
       H   -16.29788    6.55210   -4.51291
       O   -16.82647    6.28702   -3.74429
      H1   -16.04181    6.05125   -3.17670
       H   -19.56346   13.08122    2.32317
       O   -19.08995   12.35116    2.77029
      H1   -18.30346   12.35047    2.23835
       H   -18.37045    5.91115    9.49284
       O   -18.94217    6.56388    9.90493
      H1   -18.79199    7.35354    9.32735
       H   -17.13080   -0.95882    5.59946
       O   -17.39887   -1.85535    5.61315
      H1   -18.05784   -1.87401    6.32344
       H   -18.78430    3.45480   11.18524
       O   -18.41984    3.36771   10.28057
      H1   -17.48631    3.38339   10.55750
       H   -15.25616    8.41415   10.71279
       O   -15.94225    7.89062   11.14863
      H1   -16.18966    7.29268   10.45318
       H   -14.21870    1.51687    2.26000
       O   -13.89066    1.60198    3.17632
      H1   -14.35090    2.34549    3.58828
       H   -14.89708    2.43021    0.87367
       O   -14.95914    1.47290    0.68500
      H1   -15.85952    1.36276    1.04638
       H   -13.83090    0.62113   -2.03755
       O   -14.75752    0.59238   -1.90926
      H1   -14.88669    0.74676   -0.97643
       H   -15.14266   10.14116    6.86274
       O   -15.95708    9.60846    7.00032
      H1   -16.00474    9.52978    7.96495
       H   -10.78863    1.86012    3.20046
       O   -11.26502    1.70983    4.01177
      H1   -12.17029    1.58503    3.65458
       H   -18.73897    9.68397    8.28414
       O   -18.06269   10.32280    8.41374
      H1   -17.52258   10.09811    7.66317
       H   -18.60470   -2.97022    4.31271
       O   -18.96680   -3.83304    4.05700
      H1   -19.58331   -3.47686    3.36490
       H   -11.66712    3.21047    7.80731
       O   -11.18572    4.05923    7.80704
      H1   -10.66004    3.96294    7.03539
       H   -12.87989    0.62190    8.23118
       O   -12.86184    1.37369    7.65150
      H1   -12.68712    0.86932    6.84215
       H   -10.28281    8.05054    1.10339
       O   -11.09513    8.46529    0.81301
      H1   -11.67686    7.71193    0.76116
       H   -16.03285    6.98627    5.20861
       O   -15.45275    6.93897    5.98793
      H1   -15.48404    7.85059    6.33360
       H   -12.83925    0.15648    0.15387
       O   -12.92105   -0.65672    0.64307
      H1   -12.32220   -1.15903    0.05925
       H   -11.11640    6.07906    2.85293
       O   -10.55884    5.47189    2.29942
      H1   -11.33016    5.07022    1.79660
       H   -18.75721   10.13148    3.41398
       O   -18.92886    9.19854    3.43390
      H1   -19.32773    9.04433    2.56131
       H   -18.46009   10.04477   10.42460
       O   -18.47887    9.33534   11.10814
      H1   -17.62162    8.97056   10.85289
       H   -17.64701    0.52691    1.20430
       O   -17.15019    0.78477    1.99085
      H1   -16.68005   -0.01626    2.31266
       H   -11.75668    0.29713    5.26090
       O   -12.39271   -0.23162    5.71232
      H1   -11.80220   -0.60943    6.39935
       H   -11.49006    6.53728    9.55138
       O   -12.39871    6.31816    9.42570
      H1   -12.39736    6.03730    8.41704
       H   -14.60501   -1.07495    1.14349
       O   -15.36086   -1.41644    1.69555
      H1   -14.82319   -1.89995    2.33559
       H   -18.27976    3.83634    2.60591
       O   -18.44234    3.66475    1.66696
      H1   -17.95023    2.83108    1.50464
       H   -14.91564    4.49091   10.70398
       O   -15.69996    4.18626   11.13419
      H1   -15.63230    4.54580   12.05761
       H   -14.63895    1.99891    7.46149
       O   -15.55803    1.70304    7.58538
      H1   -16.08988    2.49604    7.32301
       H   -15.56641    9.42144   -0.74406
       O   -14.97671    9.33190    0.06337
      H1   -15.42266    9.67356    0.81604
       H   -12.94385   11.56347    7.03106
       O   -13.31385   10.67392    7.04156
      H1   -12.82446   10.28221    6.31022
       H   -16.48187    4.54057    1.08127
       O   -15.57166    4.49642    1.40662
      H1   -15.11286    5.21003    1.01171
       H   -19.77428    0.69662    5.12674
       O   -19.24535    0.97540    4.36880
      H1   -18.31151    0.93426    4.62734
       H   -16.81833    6.34529    7.53678
       O   -16.98242    5.65224    8.19851
      H1   -16.10385    5.25928    8.33494
       H   -11.88343    1.73746   -1.50982
       O   -12.03655    2.28327   -0.72998
      H1   -11.36887    1.86636   -0.15366
       H   -11.76088    8.45290    5.06661
       O   -12.03047    9.39484    5.11424
      H1   -11.30138    9.81916    4.65463
       H   -16.00980   11.76705    1.54628
       O   -16.27344   10.92599    1.92801
      H1   -16.05797   11.10012    2.85275
       H   -15.90024    4.03498    4.24953
       O   -14.99169    3.94344    3.92798
      H1   -15.18221    4.18980    2.99027
       H   -17.99119    9.26425    0.11047
       O   -18.32159   10.17213    0.19700
      H1   -17.88724   10.45265    1.05514
       H   -15.78001    2.05579   -2.92297
       O   -15.91186    2.83197   -3.40650
      H1   -16.87880    2.81889   -3.64173
       H   -15.53487    6.72543    2.92000
       O   -16.42330    6.91285    3.28640
      H1   -16.65324    7.57143    2.72010
       H   -10.45756    3.56393    4.50562
       O    -9.85612    4.03304    5.09199
      H1    -9.94454    4.94023    4.93108
       H   -16.51128    0.27371    9.41056
       O   -16.85258   -0.56230    9.62495
      H1   -16.28238   -1.23625    9.21880
       H   -18.99767    0.28806    9.36495
       O   -19.75888   -0.11352    8.91304
      H1   -19.53228   -1.04571    9.11636
       H   -16.61280    7.09501   -0.13428
       O   -17.41451    7.43676    0.29868
      H1   -18.15834    6.88592    0.02993
       H   -10.48899    7.01448    5.38156
       O   -11.09326    6.88520    4.63696
      H1   -11.80054    6.39795    5.10802
       H   -13.97703    6.46057    0.08987
       O   -14.18983    6.89272    0.92406
      H1   -14.45666    7.82371    0.65787
       H   -13.50392    4.52042    7.49378
       O   -14.23846    4.31192    8.09922
      H1   -13.77224    3.77877    8.76376
       H   -14.16865    6.15197    5.45956
       O   -13.37383    5.51388    5.52055
      H1   -13.67480    4.74416    5.05004
       H   -18.54179   12.12781    5.26605
       O   -19.15467   12.81129    5.58331
      H1   -19.47451   13.04304    4.71433
       H   -15.65479   -1.98529    5.96759
       O   -14.71505   -2.13203    5.74550
      H1   -14.34335   -1.25556    5.72425
       H   -17.47912    4.22913    7.61292
       O   -17.68079    3.42904    7.09894
      H1   -18.58480    3.38063    7.39662
       H   -12.30082    3.93315   -1.01708
       O   -12.38479    4.77032   -1.51251
      H1   -12.38013    4.31993   -2.38903
       H   -14.32134    4.76107   -1.54566
       O   -15.23892    5.04164   -1.78202
      H1   -15.50719    4.39094   -2.50605
       H   -18.24021    0.29419   -1.02438
       O   -18.59574    0.88859   -0.39116
      H1   -19.55195    0.68600   -0.50002
       H   -19.23344    3.86242   -3.17198
       O   -18.77997    4.01653   -3.95860
      H1   -18.28104    4.90136   -3.74856
       H   -19.04605    5.06441    0.71504
       O   -19.47610    5.53451   -0.03095
      H1   -20.15791    6.08781    0.43765
       H   -14.03498    8.93200    8.99644
       O   -14.54308    8.13495    8.93601
      H1   -13.87907    7.48008    9.25448
       H   -17.80239    4.06323    5.41718
       O   -17.83970    4.51189    4.50674
      H1   -18.36163    5.28805    4.75776
       H   -16.44665   11.74558    5.04440
       O   -17.23820   11.11113    4.87544
      H1   -17.17293   10.36382    5.51703
       H   -15.54925    1.06264    4.92408
       O   -16.51217    0.95688    5.24645
      H1   -16.46240    1.16183    6.21008

