180
frame 7 | Written by MDAnalysis XYZWriter (release 2.4.3)
       H   -17.38959  -15.78973    7.26787
       O   -18.04825  -15.76894    6.51673
      H1   -18.37150  -14.86944    6.65923
       H   -16.70593  -16.10599    5.48150
       O   -16.25107  -16.73594    4.89195
      H1   -16.98482  -17.42106    4.79190
       H    -9.31670  -18.03830   14.09657
       O    -9.35459  -18.63570   14.85925
      H1    -8.43117  -18.92810   14.88741
       H    -8.40413  -10.23029    7.11080
       O    -8.86459  -10.78706    7.75307
      H1    -8.42344  -10.51290    8.57816
       H    -7.99973  -11.59024   11.60752
       O    -8.26668  -11.24681   10.73244
      H1    -9.09408  -10.74049   10.97814
       H   -15.20221  -11.68164   10.56987
       O   -14.64103  -11.36433    9.86945
      H1   -13.96488  -10.90735   10.33795
       H    -5.13738  -15.61647    8.99052
       O    -5.56573  -16.31318    9.55762
      H1    -6.33617  -16.63486    9.01571
       H   -13.31790  -17.65479    4.49094
       O   -12.79923  -17.47269    5.27743
      H1   -13.26554  -16.69438    5.60582
       H   -11.18451  -14.18112    4.43912
       O   -10.76215  -13.40195    4.84573
      H1    -9.88280  -13.44696    4.42642
       H    -5.68492  -12.50451   11.08597
       O    -6.35334  -13.24357   11.16018
      H1    -6.31137  -13.74647   10.33433
       H   -12.20167  -14.45916    6.61219
       O   -12.49553  -15.19275    7.17973
      H1   -13.17018  -14.82108    7.75110
       H    -9.86454  -15.45563   17.70082
       O   -10.09089  -15.49180   18.62462
      H1   -10.22553  -14.52579   18.80966
       H   -12.60025  -10.93247   13.17872
       O   -12.92746  -10.31236   12.44497
      H1   -13.79293  -10.24055   12.72220
       H    -5.81353  -14.52257   12.90107
       O    -5.47982  -14.59644   13.81109
      H1    -5.38153  -13.63077   14.01581
       H   -12.57051  -13.40450   18.28438
       O   -11.95065  -12.81185   17.88710
      H1   -12.57844  -12.05909   17.77866
       H   -11.55495  -18.40955   18.30650
       O   -11.67040  -17.67279   19.01185
      H1   -11.21075  -16.94927   18.61973
       H   -19.41321  -19.52549   15.21061
       O   -18.85482  -18.76043   14.86394
      H1   -18.17515  -19.28112   14.42155
       H    -8.66615  -17.71464   12.61582
       O    -9.22682  -16.97430   12.78661
      H1    -9.98683  -17.16287   12.10717
       H   -15.56703  -15.85566   17.11207
       O   -16.02137  -15.07474   16.83138
      H1   -15.37658  -14.61346   16.26856
       H    -3.61561  -17.56263    7.61539
       O    -3.54461  -17.64461    8.58054
      H1    -4.42930  -17.27962    8.85802
       H   -14.77825  -18.33721    2.55862
       O   -14.33148  -19.03387    3.05545
      H1   -14.86931  -19.03506    3.87668
       H   -16.66211  -13.65184    8.62838
       O   -17.63397  -13.62383    8.64733
      H1   -17.88933  -12.76646    8.20027
       H   -13.16865  -12.51611    9.78057
       O   -12.39463  -12.86924   10.25997
      H1   -12.82014  -13.41523   10.95914
       H   -13.15699  -19.21156   14.54636
       O   -13.97976  -19.13918   13.99742
      H1   -13.83279  -18.46083   13.28036
       H   -14.94792  -14.27675    9.43791
       O   -14.93475  -14.43955    8.48096
      H1   -15.12643  -15.41632    8.40095
       H   -11.33901  -16.69616    4.55803
       O   -10.49473  -16.35645    4.19810
      H1   -10.02689  -16.76250    4.98795
       H    -9.94280  -14.96431    8.98846
       O   -10.45318  -15.81916    8.99903
      H1   -11.21998  -15.48942    8.50643
       H   -15.56575  -11.04299   13.68202
       O   -15.87555  -11.25538   12.80074
      H1   -16.82372  -11.04527   12.89505
       H    -7.30745  -13.79686    7.94899
       O    -6.55170  -13.40216    8.35853
      H1    -6.96150  -12.67014    8.83634
       H   -16.30003  -17.44826    8.54554
       O   -15.88468  -16.83191    7.92153
      H1   -15.92908  -17.23529    7.06564
       H   -17.11141   -9.40211   10.04678
       O   -16.31447   -9.16846    9.48718
      H1   -15.90416  -10.06796    9.51267
       H   -10.76113  -17.10751   10.15465
       O   -11.15990  -17.46017   10.98906
      H1   -12.02051  -17.08591   11.06122
       H    -7.27025  -14.84061   13.89307
       O    -8.16503  -14.58285   13.99650
      H1    -8.59225  -15.16297   13.34321
       H   -14.28205  -17.66736   11.18735
       O   -14.19063  -17.27742   12.12077
      H1   -15.10475  -16.97099   12.29195
       H   -16.94893  -14.69957   11.52754
       O   -16.46128  -14.01552   11.07964
      H1   -17.12207  -13.80065   10.36181
       H   -10.83792  -12.87676   14.14786
       O   -10.55383  -12.19562   13.46974
      H1   -10.60943  -12.72194   12.64584
       H   -13.93261  -15.42152   12.25721
       O   -14.05427  -14.43637   12.31115
      H1   -14.93305  -14.31500   11.98936
       H    -7.12440  -18.73445    8.92078
       O    -7.13291  -19.71667    8.79994
      H1    -7.22990  -20.07413    9.68077
       H   -11.49213  -13.82430   16.31575
       O   -11.65374  -13.88903   15.35210
      H1   -11.37523  -14.78053   15.20948
       H   -13.33364  -14.32998    2.89514
       O   -13.52655  -14.82707    3.66509
      H1   -14.05153  -14.27757    4.21245
       H   -17.57721  -15.90851   15.81542
       O   -18.27908  -15.77003   15.14737
      H1   -18.91856  -16.42369   15.42400
       H    -9.35493  -11.82012   16.38701
       O    -8.69713  -12.38658   16.82949
      H1    -9.09712  -12.42052   17.75084
       H   -10.73793   -8.18783   11.49744
       O   -10.39056   -8.83827   12.13955
      H1   -11.12309   -9.44434   12.36409
       H    -8.91050  -16.99640    8.53513
       O    -7.95502  -17.12545    8.58392
      H1    -7.83639  -17.10596    7.58508
       H   -12.32870  -11.13694    6.60951
       O   -12.59464  -11.95334    6.15949
      H1   -11.93077  -11.91761    5.48784
       H    -9.24880  -12.65809    7.50584
       O    -9.19485  -13.59647    7.26935
      H1    -9.74920  -13.66596    6.47463
       H   -14.21340  -12.23373    5.12883
       O   -14.93594  -12.77025    4.70411
      H1   -15.56937  -12.69997    5.46153
       H   -13.53870  -17.47602   18.52788
       O   -14.44539  -17.35715   18.28479
      H1   -14.60054  -18.05264   17.61616
       H   -14.03818  -10.32373   15.64846
       O   -14.52832  -11.00772   15.16883
      H1   -14.16414  -11.80545   15.56571
       H   -19.30643  -17.46500   11.54910
       O   -18.66393  -17.74810   10.84188
      H1   -19.15411  -17.43018   10.03157
       H    -8.97069  -15.62305   15.64736
       O    -9.69079  -16.07938   16.09435
      H1    -9.72173  -16.90551   15.61062
       H   -14.45138  -13.96767   14.12985
       O   -14.34906  -13.70787   15.02178
      H1   -13.41543  -13.87998   15.17324
       H    -8.91427  -11.86607   13.61860
       O    -7.94910  -11.86993   13.45745
      H1    -7.80667  -12.81989   13.33480
       H   -17.35293  -16.21082   13.50438
       O   -16.79253  -16.19408   12.71251
      H1   -17.35538  -16.69087   12.08038
       H   -10.45169  -13.21784   10.75354
       O   -10.03650  -13.73282   11.44583
      H1    -9.13290  -13.44353   11.32000
       H   -13.74572  -19.40951    9.47864
       O   -13.63295  -18.44685    9.36625
      H1   -12.69172  -18.35120    9.28219
       H    -6.02739  -17.42487   13.85257
       O    -6.17292  -17.58900   14.81108
      H1    -5.98799  -18.52229   14.97364
       H    -6.36659  -18.11318   11.84087
       O    -5.76463  -17.39907   11.95784
      H1    -5.57091  -16.99017   11.10242
       H    -8.16370  -17.71486    5.21122
       O    -8.68166  -17.30076    5.94630
      H1    -9.29321  -17.96533    6.23806
       H   -10.67380  -19.54125    6.35008
       O   -10.71888  -18.79296    6.91128
      H1   -11.58922  -18.48210    6.58073

