180
frame 9 | Written by MDAnalysis XYZWriter (release 2.4.3)
       H    -2.21179   15.97338   -1.53136
       O    -2.28790   16.93864   -1.56425
      H1    -2.08429   17.11301   -0.62208
       H     6.42001   16.90184    1.90570
       O     6.85365   16.05160    2.17020
      H1     7.69741   16.32526    2.49164
       H    -3.29011   14.56226    7.13226
       O    -3.32443   14.56911    6.18399
      H1    -2.39491   14.60676    5.96226
       H    -3.57698   16.69032   -4.55018
       O    -2.78537   16.14430   -4.61108
      H1    -3.06886   15.28472   -4.25446
       H     2.08037   10.69900    0.31580
       O     1.12806   10.61220    0.64904
      H1     0.77218    9.93139    0.05058
       H    -6.78931   14.68054    3.98023
       O    -6.14806   15.12406    4.59513
      H1    -6.38983   16.04159    4.21692
       H     0.22033   15.33581   -1.95698
       O     1.12623   15.70156   -2.10625
      H1     0.93162   16.65758   -2.00423
       H    -5.89384   17.96415   -4.81687
       O    -5.63275   17.13183   -4.35049
      H1    -5.87787   16.49953   -5.05266
       H    -4.53253   12.94461    5.66078
       O    -4.89537   12.08899    5.47862
      H1    -5.27851   11.87178    6.32677
       H    -6.40877   16.90646    7.25139
       O    -5.46113   16.95230    7.47573
      H1    -5.15104   16.24551    6.91939
       H     2.74582   18.52531   -3.84503
       O     1.97931   18.79498   -4.34089
      H1     1.67177   17.94887   -4.77728
       H    -0.60478   18.05478    0.24770
       O    -1.26307   17.80408    0.87593
      H1    -1.81375   18.52026    1.08849
       H     3.03573   14.40025    1.05164
       O     2.77450   13.77195    1.74625
      H1     3.55335   13.62602    2.33621
       H     6.12007   19.32480    1.61255
       O     5.53086   18.81523    2.27261
      H1     4.72407   18.72084    1.73823
       H    -6.06597   18.27448   -0.95073
       O    -5.38743   18.84248   -0.52386
      H1    -5.96139   19.62538   -0.23016
       H    -9.06392   15.23149    0.30777
       O    -8.20242   15.57252    0.57059
      H1    -7.65254   14.96981    0.10361
       H    -0.77804   10.08030    2.72462
       O    -1.55557   10.55305    3.02935
      H1    -1.40121   10.79841    3.99031
       H     0.18394   12.84885    4.53780
       O     0.34096   12.73783    5.45662
      H1    -0.53195   12.37956    5.75508
       H     2.82016   11.24379   -1.90710
       O     2.41366   12.07011   -2.40663
      H1     1.95237   11.58553   -3.10096
       H    -4.18248   13.76680    1.44011
       O    -4.91672   14.34671    1.29057
      H1    -5.74785   13.78655    1.40655
       H    -4.07436   18.74358    1.73526
       O    -3.31340   19.35983    1.69401
      H1    -3.41756   19.70304    0.78861
       H    -7.43837   16.17304   -2.25523
       O    -7.20663   17.10149   -2.14297
      H1    -6.57817   17.17602   -2.82328
       H    -1.77346   17.42825   -4.31031
       O    -1.17713   18.18620   -4.38671
      H1    -0.71101   18.08954   -5.24154
       H    -4.35759   12.97989   -3.05786
       O    -3.81572   13.66393   -3.46538
      H1    -2.88096   13.63918   -3.00405
       H     4.22679   11.21699    0.81262
       O     3.49436   11.32681    0.14119
      H1     3.13699   12.17875    0.49696
       H     1.37150   12.86756   -1.32022
       O     0.68418   13.09575   -0.64679
      H1     0.65995   12.21990   -0.17174
       H    -3.93264   11.61001   -0.99845
       O    -4.67584   12.07748   -1.42847
      H1    -4.68938   12.94044   -1.01594
       H    -0.61944   15.96400    5.17050
       O    -0.46835   15.43771    5.95195
      H1    -0.12478   14.67000    5.55187
       H    -0.48433   13.81544   -1.68219
       O    -1.17895   14.10821   -2.34418
      H1    -0.64036   14.02826   -3.14090
       H     2.08298   13.71880   -4.87821
       O     1.74939   13.16663   -5.62449
      H1     0.80449   13.44001   -5.60444
       H    -1.10013   14.22157   -5.95264
       O    -0.94851   13.73891   -5.15105
      H1    -1.76494   13.13813   -5.21279
       H    -5.77524   18.57198    4.34655
       O    -5.00270   18.92072    4.79088
      H1    -5.19931   18.79792    5.71575
       H     1.16586   20.22467    1.21140
       O     1.63673   19.80697    1.99563
      H1     1.98709   18.98741    1.72069
       H     3.31517   17.22550    2.09583
       O     3.13292   17.79575    1.32814
      H1     2.79829   17.14591    0.69359
       H    -2.13710   15.85171   -7.97028
       O    -1.73262   15.47331   -7.21591
      H1    -2.43157   15.71736   -6.50962
       H    -4.08920   16.17401    4.84836
       O    -3.46346   16.69165    4.29816
      H1    -4.06145   17.42365    4.20621
       H    -8.96050   18.66426   -0.99976
       O    -9.16070   18.29339   -0.12910
      H1    -8.61486   17.40698   -0.24868
       H     3.87382   16.28878    5.06650
       O     3.90285   16.28688    6.02044
      H1     3.17899   16.88973    6.19946
       H    -9.09505   15.97045    3.48364
       O    -8.92266   15.12010    3.07354
      H1    -8.51081   15.37740    2.27775
       H     4.71943   14.85412   -2.77604
       O     5.11838   15.08126   -1.94586
      H1     6.09436   15.02598   -2.03521
       H    -4.46996   19.09767   -2.29778
       O    -3.77332   19.18411   -2.92786
      H1    -3.42848   18.24771   -2.80462
       H    -1.83531   10.40308   -0.08408
       O    -2.26947   11.00768   -0.70628
      H1    -1.88762   11.86675   -0.50323
       H     2.36721   15.44485   -0.73902
       O     3.16020   15.52655   -0.15267
      H1     3.88645   15.36488   -0.72936
       H    -0.98700   17.24117    8.66927
       O    -0.99205   16.24079    8.78177
      H1    -0.76087   15.91542    7.82564
       H     0.83061   17.28619    6.40397
       O     1.44900   17.94015    6.09461
      H1     0.90521   18.47985    5.50932
       H     0.70093   18.59615    7.71754
       O     0.22108   18.86507    8.50699
      H1    -0.01849   19.77152    8.20633
       H    -2.67080   17.65415    7.25636
       O    -2.33097   17.91071    6.39290
      H1    -2.84182   17.27178    5.92887
       H    -2.34802   12.36540    2.13657
       O    -2.50722   12.93831    1.40057
      H1    -1.69210   13.52474    1.51227
       H     0.03671   18.07058   -2.73253
       O     0.47248   18.33691   -1.91508
      H1     1.16542   18.87802   -2.38518
       H    -5.02140   17.60582    0.56787
       O    -5.10816   17.08997    1.40071
      H1    -4.77498   16.25563    1.12980
       H     4.83477   16.44492    2.96311
       O     4.02120   16.12312    3.34337
      H1     3.89834   15.26175    2.96041
       H     0.81490   19.24895    3.53783
       O     0.14209   19.21032    4.27823
      H1    -0.37553   18.40500    4.01315
       H     2.29433   15.47023   -3.61173
       O     2.92433   14.95360   -4.10833
      H1     3.21133   15.50709   -4.83758
       H    -2.89915   11.71008    5.53050
       O    -2.00840   11.35022    5.38678
      H1    -2.23577   10.36990    5.51501
       H    -0.05191   14.71787    2.99639
       O    -0.05177   13.75601    2.86998
      H1     0.80897   13.60190    2.44147
       H     0.37096   17.79202   -7.61241
       O     0.14112   17.61672   -6.64286
      H1    -0.42589   16.82860   -6.81674
       H     4.30602   17.96293   -1.64740
       O     4.17869   18.07178   -2.61161
      H1     4.31994   19.04758   -2.73268
       H    -0.94873   16.69790    2.47054
       O    -0.81229   16.55485    3.45712
      H1    -1.75183   16.61678    3.68328
       H    -6.41244   17.54156    2.66014
       O    -6.84101   17.63718    3.56084
      H1    -7.64477   18.11648    3.31127
       H     6.30970   18.40731   -1.09512
       O     6.09356   17.57909   -0.68977
      H1     5.73820   16.96712   -1.34146

