180
frame 11 | Written by MDAnalysis XYZWriter (release 2.4.3)
       H    -4.60151    4.75042    6.23578
       O    -5.00723    5.26384    5.50155
      H1    -5.71100    5.74034    5.96989
       H     0.47210   -0.55229    6.60023
       O     0.10226    0.28226    6.26792
      H1    -0.00366    0.18643    5.30836
       H    -2.07856   -4.34071    0.93711
       O    -2.99654   -4.10064    0.85574
      H1    -3.39948   -4.12212    1.73150
       H    -2.45614    3.32626    6.85824
       O    -3.36174    3.17756    6.40948
      H1    -3.17276    2.41188    5.81639
       H    -0.41158   -4.49459    7.20947
       O     0.40813   -5.04827    7.28973
      H1     1.02363   -4.47644    7.74323
       H     0.28631    0.05005   -0.70768
       O    -0.07175   -0.47753   -0.02118
      H1    -1.03737   -0.55132   -0.25337
       H    -2.33729   -5.88849    5.64727
       O    -2.58678   -4.92806    5.56298
      H1    -3.52615   -4.93737    5.90067
       H    -6.56123   -0.33368    8.53256
       O    -5.72426   -0.62701    8.15151
      H1    -5.94844   -1.23739    7.45778
       H    -9.98598   -2.25053    0.20439
       O    -9.15511   -1.77521    0.46392
      H1    -8.55672   -2.49134    0.73408
       H    -8.91320    2.95573   -1.20763
       O    -9.33837    2.91584   -0.35300
      H1    -8.79081    2.29669    0.08207
       H   -10.11771   -2.35958    7.05437
       O   -10.70436   -3.08153    7.32252
      H1   -10.95743   -2.62523    8.09656
       H    -2.67151   -0.63266   -3.90007
       O    -1.94766   -0.68460   -3.25444
      H1    -1.53459    0.18407   -3.35802
       H    -5.24839   -6.58370   -0.74424
       O    -5.29159   -5.80715   -0.22888
      H1    -4.46941   -5.83364    0.25406
       H    -2.86408   -0.80054   -1.45415
       O    -2.68959   -1.02454   -0.49486
      H1    -3.34375   -0.49249   -0.00792
       H    -1.24808   -1.47707    9.71778
       O    -1.49978   -2.25604    9.19338
      H1    -2.43603   -2.42975    9.36547
       H   -12.28848   -3.60487    1.71413
       O   -11.31896   -3.53426    1.55029
      H1   -11.03406   -4.23188    2.06152
       H    -4.72660   -1.15587    3.79822
       O    -4.62592   -1.50917    2.90180
      H1    -5.48965   -1.52045    2.55310
       H    -6.91405    3.39274    7.84078
       O    -6.03154    3.03457    8.06678
      H1    -5.51638    3.90633    8.21963
       H    -5.76651   -6.64492    7.39978
       O    -6.24216   -7.36343    7.81384
      H1    -5.64200   -7.59728    8.52399
       H    -6.95669   -6.36297    0.54714
       O    -7.84734   -6.67248    0.80003
      H1    -7.87088   -6.45521    1.72804
       H   -11.52364    0.45366    0.12661
       O   -11.42546    0.02852    0.98687
      H1   -10.53551   -0.31758    0.86326
       H    -8.34924    3.85748    4.26803
       O    -8.84002    3.01561    4.29272
      H1    -8.39816    2.42334    4.88839
       H   -10.13281   -0.71468    3.38448
       O    -9.16299   -1.05555    3.17166
      H1    -9.20402   -1.45617    2.28537
       H    -4.08150   -3.15374    3.27700
       O    -4.04419   -4.12481    3.40711
      H1    -3.28148   -4.30082    4.01359
       H    -2.98127   -7.73627   -0.25009
       O    -2.96506   -7.39758    0.66153
      H1    -2.46047   -6.55362    0.58880
       H    -6.70372   -3.76677    1.59742
       O    -6.76465   -2.87959    1.26736
      H1    -6.00757   -2.84830    0.69798
       H    -8.62248   -1.33517   -3.39176
       O    -7.80775   -1.32593   -3.88032
      H1    -7.16669   -1.23197   -3.19024
       H    -2.13984   -2.61953   -3.43981
       O    -2.20408   -3.58043   -3.36341
      H1    -3.09145   -3.75456   -3.56371
       H    -1.15132    1.21592    3.78467
       O    -0.45877    0.51149    3.58743
      H1    -0.99261   -0.31335    3.50717
       H    -5.84156   -0.13684   -1.44914
       O    -6.31990   -1.00233   -1.59308
      H1    -5.58426   -1.61095   -1.37855
       H    -3.80326   -1.16579    7.28392
       O    -3.10109   -1.14851    6.58688
      H1    -2.38533   -1.67009    7.00021
       H     1.28285    1.54498    1.26670
       O     1.78104    1.29589    2.04655
      H1     1.15781    0.81253    2.65093
       H   -11.15574    2.07568    2.17974
       O   -11.13492    2.60876    2.99177
      H1   -10.15872    2.63088    3.20395
       H    -5.65520   -5.05348    3.09746
       O    -6.52741   -5.07840    2.70567
      H1    -6.95933   -5.73162    3.29572
       H     0.48274    3.36805    4.16289
       O    -0.35138    3.63190    4.67958
      H1     0.08652    4.23537    5.28012
       H    -0.32161   -2.31481    3.07198
       O    -1.24288   -2.18578    2.83149
      H1    -1.17142   -1.65584    1.99349
       H    -5.37310    2.83441   -1.96248
       O    -5.66463    1.93257   -1.81631
      H1    -5.76370    1.93006   -0.87867
       H    -4.39657    3.36837   -0.34919
       O    -4.45168    3.43903    0.59861
      H1    -3.94076    4.28646    0.66681
       H    -4.31121    1.16740    4.66631
       O    -3.35210    1.14773    4.44716
      H1    -3.14399    0.25356    4.81347
       H    -3.97182   -3.11572   -0.47485
       O    -4.82497   -3.20235   -0.90789
      H1    -5.14296   -4.10231   -0.73026
       H    -8.52610   -5.96138    5.59020
       O    -9.06144   -5.35706    6.12979
      H1    -8.40159   -4.67596    6.33919
       H    -7.79485   -2.73216    6.25718
       O    -7.35986   -3.41491    6.80656
      H1    -7.79162   -3.34155    7.65948
       H     1.52458   -3.40973    4.47590
       O     1.00805   -2.62643    4.40238
      H1     1.70019   -1.94903    4.61516
       H    -4.77620   -4.17740    7.93906
       O    -5.00585   -4.79437    7.22449
      H1    -5.80560   -4.27390    6.96086
       H     0.51104   -5.62863   -0.19326
       O    -0.26283   -5.84485    0.33610
      H1    -0.06529   -6.78647    0.53746
       H    -7.64762   -0.71270    4.36831
       O    -7.17127   -0.72852    5.22185
      H1    -6.88940    0.20275    5.27420
       H    -1.57170   -3.19231    5.78005
       O    -0.86520   -2.70644    6.23687
      H1    -0.27789   -2.39798    5.53142
       H     1.92837   -5.87497    4.85634
       O     1.84500   -5.28584    4.08972
      H1     0.89336   -5.07858    4.00035
       H    -6.70333    0.43449    1.76895
       O    -7.59221    0.74387    1.58019
      H1    -8.10568    0.03516    2.00874
       H    -9.49994   -6.62661    3.60515
       O    -8.60055   -7.00760    3.61866
      H1    -8.75016   -7.91038    3.95224
       H    -4.37260   -3.97750    9.87737
       O    -4.26203   -3.11510    9.39305
      H1    -5.18777   -2.83353    9.18722
       H    -4.41211   -0.36733    1.59690
       O    -4.60023    0.37325    0.92316
      H1    -4.60914    1.18229    1.40909
       H    -9.48412   -0.11621    7.60625
       O    -9.09211   -0.92096    7.18900
      H1    -8.70698   -0.55804    6.40113
       H    -9.37714   -1.23759   -1.26832
       O    -9.77245   -1.02737   -2.13438
      H1   -10.26327   -1.85896   -2.28995
       H    -0.45896   -5.21353    2.01995
       O    -0.80657   -5.06821    2.93444
      H1    -1.28866   -4.20733    2.93340
       H    -6.90137    2.61256    2.08552
       O    -6.40347    3.28644    2.59970
      H1    -5.84106    3.64046    1.82681
       H    -4.93298   -4.19473   -3.13721
       O    -4.89334   -4.91477   -3.80570
      H1    -5.00372   -5.69964   -3.18644
       H    -5.80705    2.08919    6.26851
       O    -6.05507    1.80225    5.32820
      H1    -5.96773    2.61250    4.81545
       H    -1.25479   -6.80572    2.88802
       O    -1.31676   -7.74957    2.76409
      H1    -1.91105   -7.80590    2.05263
       H    -0.93712   -2.95335   -1.18157
       O    -0.00332   -2.85789   -1.26081
      H1     0.10107   -2.04716   -0.69799

