180
frame 7 | Written by MDAnalysis XYZWriter (release 2.4.3)
       H    -7.58459  -14.29093   -1.97425
       O    -6.90707  -14.46424   -2.60334
      H1    -6.07891  -14.22766   -2.13061
       H   -11.46193   -6.28926   -2.30258
       O   -11.84272   -7.18055   -2.48557
      H1   -11.05126   -7.76948   -2.41203
       H    -8.40413  -10.23029    7.11080
       O    -8.86459  -10.78706    7.75307
      H1    -8.42344  -10.51290    8.57816
       H    -1.33290  -14.28224    3.17693
       O    -1.54868  -13.87301    2.31631
      H1    -2.28341  -13.32880    2.63129
       H    -8.02234   -7.12445   -5.42401
       O    -7.49055   -7.64078   -4.79495
      H1    -6.65354   -7.37132   -5.13781
       H    -3.30614   -8.27456   -2.13700
       O    -2.50600   -7.91960   -2.46110
      H1    -2.79254   -7.04693   -2.82054
       H    -3.16831  -11.36437    6.02543
       O    -2.87728  -10.88433    5.22659
      H1    -2.99980   -9.97349    5.48030
       H    -9.40571  -13.65051   -0.65384
       O    -8.84826  -12.90421   -0.23971
      H1    -9.16796  -13.04184    0.70398
       H    -8.03242  -12.89065    3.11243
       O    -8.71966  -13.55460    2.86710
      H1    -8.33707  -14.36502    3.17076
       H    -8.46052  -10.44213    0.97754
       O    -9.43927  -10.41394    1.22873
      H1    -9.55281   -9.64911    1.77787
       H   -12.30350  -14.01671    0.75789
       O   -12.99839  -13.62584    1.35900
      H1   -12.33514  -13.07425    1.80265
       H    -6.82727  -11.21072    2.25226
       O    -6.80614  -11.79041    3.05108
      H1    -6.79081  -11.12502    3.73342
       H    -5.02850   -5.28781   -1.89827
       O    -4.88880   -4.95274   -0.97205
      H1    -3.87736   -4.88185   -0.97410
       H   -11.18451  -14.18112    4.43912
       O   -10.76215  -13.40195    4.84573
      H1    -9.88280  -13.44696    4.42642
       H    -8.52227  -10.60808   -2.52811
       O    -7.96874  -11.35236   -2.83515
      H1    -8.26613  -12.04194   -2.21992
       H   -11.86554  -11.95652   -2.78908
       O   -11.84114  -12.69185   -3.43904
      H1   -12.53011  -13.27308   -3.17372
       H   -10.82415  -13.89765   -2.60415
       O   -10.19537  -14.63450   -2.40593
      H1   -10.72845  -15.22330   -1.85665
       H    -5.94978  -15.30069    2.77199
       O    -6.47312  -15.15800    3.60099
      H1    -5.97319  -15.70450    4.26779
       H    -5.50196   -7.51426    7.13652
       O    -6.20258   -8.16333    7.04293
      H1    -6.82926   -7.86897    7.68931
       H    -6.07104   -6.15913    0.09849
       O    -6.69178   -6.86126    0.47747
      H1    -7.09326   -6.21954    1.13096
       H    -9.08549   -8.84479    4.11140
       O    -9.70547   -8.37928    3.54436
      H1   -10.58855   -8.43455    3.91036
       H   -13.88585   -8.36775   -1.75327
       O   -14.13016   -9.27721   -1.56123
      H1   -13.33808   -9.78146   -1.30143
       H   -12.63512   -7.83792   -3.96128
       O   -12.95627   -8.38317   -4.72526
      H1   -13.85673   -8.06972   -4.89068
       H   -15.91678   -9.70070    1.42272
       O   -15.09851   -9.18772    1.33255
      H1   -15.21378   -9.08549    0.37459
       H    -7.59370  -11.07682   -4.68038
       O    -7.27693  -10.56287   -5.44095
      H1    -7.40960   -9.63145   -5.18719
       H   -11.33901  -16.69616    4.55803
       O   -10.49473  -16.35645    4.19810
      H1   -10.02689  -16.76250    4.98795
       H    -9.52356  -15.86446   -3.32785
       O    -9.38238  -16.63879   -3.94432
      H1    -8.80561  -16.23339   -4.59171
       H    -2.65160  -11.77824   -2.14942
       O    -2.09931  -11.04023   -1.85420
      H1    -1.42102  -11.45948   -1.29127
       H    -8.94703   -8.01220   -2.18486
       O    -9.48807   -8.76229   -2.48935
      H1    -9.44886   -8.71320   -3.45714
       H   -11.39683  -12.77438   -5.13186
       O   -11.16429  -13.15266   -6.01006
      H1   -11.98141  -13.18508   -6.51228
       H   -11.36827   -8.82933   -5.25260
       O   -10.36255   -8.73267   -5.28804
      H1   -10.03071   -9.53734   -5.72705
       H   -10.82398  -11.72364    1.92732
       O   -11.44168  -12.03948    2.60335
      H1   -10.90125  -12.41722    3.35129
       H    -8.59686   -5.92391   -1.97421
       O    -7.99721   -6.66619   -1.92737
      H1    -7.57987   -6.55779   -1.06168
       H    -4.54485  -12.90355   -2.03504
       O    -4.38330  -13.85587   -2.19080
      H1    -4.01204  -13.87386   -3.11428
       H   -10.64425  -11.14429   -0.54883
       O   -11.15816  -10.80781   -1.31837
      H1   -10.60939  -10.08122   -1.60692
       H    -6.47124   -4.41719    2.64661
       O    -7.33910   -4.64610    2.28595
      H1    -7.91038   -4.58941    3.08245
       H    -8.93134  -16.73596    2.82835
       O    -8.62083  -16.92502    1.94014
      H1    -7.63724  -16.76099    2.04727
       H   -13.33364  -14.32998    2.89514
       O   -13.52655  -14.82707    3.66509
      H1   -14.05153  -14.27757    4.21245
       H   -12.32870  -11.13694    6.60951
       O   -12.59464  -11.95334    6.15949
      H1   -11.93077  -11.91761    5.48784
       H    -9.24880  -12.65809    7.50584
       O    -9.19485  -13.59647    7.26935
      H1    -9.74920  -13.66596    6.47463
       H    -2.87815  -14.44176   -0.66841
       O    -2.67074  -14.99958    0.11321
      H1    -1.87373  -14.61368    0.50117
       H   -13.49663   -7.01198    3.16646
       O   -13.14541   -6.50602    2.43075
      H1   -13.94993   -6.27302    1.95091
       H    -6.85634   -8.81801    0.24555
       O    -6.76565   -9.77914    0.38521
      H1    -6.79094  -10.04608   -0.59538
       H    -3.74263  -13.97949    5.58207
       O    -3.63103  -14.67487    4.85088
      H1    -3.87815  -14.22450    4.04644
       H   -12.14714   -5.29156    3.20828
       O   -11.61812   -4.58547    3.63028
      H1   -12.05557   -4.55959    4.49032
       H    -1.43895  -11.35874    2.06695
       O    -0.61834  -10.80868    2.14390
      H1    -0.50328  -10.87802    3.08567
       H   -11.51388   -4.03617   -2.21334
       O   -10.95358   -4.71974   -1.83346
      H1   -11.27413   -4.76717   -0.93868
       H   -11.23088  -16.01372    0.81875
       O   -10.45117  -15.60399    0.41696
      H1    -9.67812  -15.91904    0.98816
       H    -4.44243  -16.70278    2.11604
       O    -4.81251  -15.91959    1.64769
      H1    -4.07852  -15.58268    1.13775
       H    -7.04914  -11.24625    6.01119
       O    -7.33844  -10.47579    5.53382
      H1    -6.83684   -9.78087    5.98158
       H   -11.67566   -8.97378    5.68347
       O   -12.05557   -8.72290    4.81816
      H1   -12.64391   -9.45102    4.59233
       H   -12.81433  -10.75585    2.75673
       O   -13.50913  -10.27542    3.25318
      H1   -13.99080   -9.98106    2.43536
       H    -5.90319   -8.72676   -2.09900
       O    -5.03834   -9.06162   -2.37029
      H1    -5.07169   -9.14835   -3.37714
       H    -3.54610  -11.39416    3.44745
       O    -3.66625  -12.23567    2.92178
      H1    -4.58388  -12.41165    3.15535
       H   -11.18115   -8.80969    7.89666
       O   -11.11329   -9.57475    7.34478
      H1   -10.22820   -9.86412    7.61534
       H    -6.55773   -6.46005   -3.45632
       O    -5.63787   -6.10321   -3.35263
      H1    -5.36293   -5.99996   -4.27121
       H    -5.07291  -10.88073   -1.87014
       O    -5.48421  -11.54613   -1.31271
      H1    -5.23954  -11.33606   -0.43194
       H   -10.05660   -5.36668    4.24662
       O    -9.07629   -5.44233    4.28637
      H1    -8.94194   -6.16909    3.67687
       H   -14.63847  -12.98552    1.12060
       O   -15.62916  -13.06697    0.88522
      H1   -15.88480  -12.27003    1.33211
       H    -6.66929  -15.38945   -5.60976
       O    -7.52692  -15.09045   -5.25124
      H1    -7.20713  -14.70772   -4.36970

