180
frame 9 | Written by MDAnalysis XYZWriter (release 2.4.3)
       H    -4.44426    3.55205   -2.85600
       O    -4.54079    2.70667   -3.38585
      H1    -5.45644    2.77151   -3.59788
       H   -12.25827    6.57246   -4.45001
       O   -11.37119    6.83153   -4.10209
      H1   -11.53994    6.85741   -3.10791
       H    -2.22283    3.81990    1.39820
       O    -1.46070    3.25346    1.01751
      H1    -1.35746    2.57605    1.69515
       H    -7.28366    5.26162   -3.74545
       O    -7.40903    5.22579   -2.75694
      H1    -7.58703    4.29883   -2.59581
       H   -10.33674    4.08172   -4.40559
       O    -9.71822    4.65298   -4.90754
      H1   -10.00009    5.53485   -4.69662
       H    -3.87980   -0.03137   -6.18550
       O    -4.04588    0.84740   -5.86016
      H1    -3.34477    1.08843   -5.22080
       H    -9.61234   -2.27103    2.08423
       O    -8.73077   -1.93231    2.27885
      H1    -8.83270   -0.98554    2.57188
       H    -3.25960    7.56319   -0.82831
       O    -3.94052    6.95587   -0.49649
      H1    -4.11295    6.39251   -1.31271
       H    -6.84282   -0.54847    6.80603
       O    -6.40062   -0.06340    6.12605
      H1    -5.56355    0.21898    6.60809
       H    -9.74268    4.45677    4.78858
       O    -9.22393    4.55098    3.99218
      H1    -8.40266    3.98711    4.13021
       H    -6.42677    4.24990   -5.82154
       O    -6.94120    5.03702   -5.47761
      H1    -7.86011    4.75736   -5.42183
       H    -4.50885    7.42376   -5.04461
       O    -4.41269    8.38486   -5.29050
      H1    -5.22154    8.49373   -5.77729
       H    -4.01922    9.37169   -3.95871
       O    -3.67608    9.84095   -3.16261
      H1    -4.16975    9.45866   -2.47597
       H    -5.83998    4.46451    1.19097
       O    -6.09999    4.38270    0.27254
      H1    -6.76489    3.69874    0.33143
       H    -4.42637    5.49056   -3.11985
       O    -4.55325    5.08061   -2.25722
      H1    -5.53124    5.07022   -2.06050
       H    -3.89895    5.41180    0.70753
       O    -3.32638    5.18530    1.48532
      H1    -2.74209    5.94810    1.63587
       H   -11.24003    0.48878    3.24469
       O   -10.86930    1.00570    2.51744
      H1   -10.59721    0.34688    1.86735
       H    -2.32926    2.21486    4.64850
       O    -2.89625    2.71789    4.02689
      H1    -3.56960    2.11808    3.62136
       H    -0.25110    6.18815   -0.89345
       O     0.12127    5.47827   -0.31420
      H1    -0.55723    4.79541   -0.19731
       H    -9.12479    6.04404    3.15952
       O    -9.08003    6.97288    2.78496
      H1    -8.10599    7.24302    2.67320
       H    -4.29328    1.11760    1.59020
       O    -4.44818    0.50915    2.26433
      H1    -5.11561   -0.08752    1.91973
       H    -3.50199    7.57747    1.37435
       O    -3.12218    7.83928    2.27414
      H1    -3.46584    7.22454    3.02509
       H    -6.51924   -0.84366    4.19321
       O    -6.58353   -1.76457    3.93840
      H1    -7.25447   -1.81366    3.21752
       H    -1.52397    1.79004   -4.11809
       O    -2.23845    2.32069   -4.48109
      H1    -3.09938    2.24979   -4.00350
       H    -5.95633    8.84754    1.81085
       O    -6.23634    8.07563    1.28066
      H1    -5.60768    8.13532    0.54987
       H    -2.46486    0.27929   -2.21035
       O    -1.53273    0.11129   -2.35818
      H1    -1.01640    0.91263   -2.21721
       H    -6.90824    1.72546    5.71695
       O    -6.93684    2.55895    5.16975
      H1    -6.20903    3.22892    5.39470
       H   -13.24378    5.01631    2.86820
       O   -13.75134    5.81433    2.48004
      H1   -14.49365    5.34822    2.05836
       H    -2.28274    4.80800    4.15999
       O    -2.49490    5.72178    4.44273
      H1    -3.28607    5.64424    5.00956
       H    -4.12392    5.71015   -5.99614
       O    -3.95904    5.55242   -5.04856
      H1    -3.01150    5.32862   -4.97363
       H    -5.83880    7.98464    5.15016
       O    -6.65064    7.65943    4.63864
      H1    -7.34981    7.56239    5.34488
       H    -4.61549   -1.31369   -0.70919
       O    -4.78450   -2.12432   -0.24046
      H1    -5.76418   -2.09876   -0.13979
       H    -8.71690    2.15161   -2.87416
       O    -7.77226    2.42520   -2.74481
      H1    -7.23314    1.73362   -3.21364
       H   -10.30926    1.47562   -1.61599
       O   -10.30755    1.70122   -2.54190
      H1   -10.99123    2.42802   -2.55300
       H    -5.69572    9.63953   -0.95194
       O    -4.81973    9.61625   -0.65752
      H1    -4.73499   10.07773    0.14592
       H    -5.52973    4.50961    8.28758
       O    -5.63373    5.27881    7.70540
      H1    -5.29696    5.05477    6.81190
       H   -10.31242    0.00522   -4.20296
       O    -9.52042   -0.09075   -4.81453
      H1    -9.46994   -1.06417   -4.97984
       H    -7.61003    1.38568    3.37041
       O    -8.21387    0.66499    3.01105
      H1    -9.12223    1.04915    3.06519
       H   -10.97118    3.64884    0.68166
       O   -10.70830    3.39177   -0.21179
      H1   -10.78321    4.16798   -0.74784
       H    -6.50810   -0.40299   -3.69521
       O    -6.15781    0.47462   -3.85881
      H1    -5.59785    0.49860   -4.67498
       H    -7.60013   -2.79384   -0.53628
       O    -7.48391   -1.79227   -0.37841
      H1    -7.99356   -1.72929    0.41492
       H    -9.29447    9.95430    3.15500
       O   -10.12602    9.43195    3.29686
      H1    -9.80516    8.50481    3.27107
       H    -7.76823    7.23898   -0.09229
       O    -8.24233    7.11389   -0.89531
      H1    -7.81927    6.43939   -1.44500
       H   -12.31307    0.73341   -0.49912
       O   -12.80324    1.55137   -0.35792
      H1   -12.20121    2.27797   -0.45989
       H   -12.62772    2.84623   -3.65580
       O   -12.35130    3.49853   -3.01470
      H1   -13.11038    4.07800   -2.72119
       H   -10.63874    3.85921    2.89337
       O   -11.47363    3.70208    2.43702
      H1   -11.53289    2.73847    2.46811
       H   -11.11873    0.17484   -2.48709
       O   -11.66083   -0.56556   -2.87377
      H1   -11.84104   -1.09981   -2.09491
       H    -1.29684   -0.39004    2.11208
       O    -1.48721    0.55535    2.36439
      H1    -2.45838    0.44725    2.41811
       H    -4.28416    2.96734   -0.38172
       O    -3.74502    2.24931    0.01531
      H1    -2.85920    2.64517    0.06590
       H    -5.44369    4.63982    4.38286
       O    -4.99564    4.25308    5.18027
      H1    -4.24363    3.68978    4.82792
       H    -4.13130   -2.45664    3.16295
       O    -3.78635   -2.81875    2.41643
      H1    -4.31999   -2.49509    1.68285
       H    -7.68681   10.34290   -1.07716
       O    -7.21163    9.64743   -1.65887
      H1    -7.56905    8.81438   -1.42233
       H    -9.74693    8.45595   -2.18890
       O   -10.33675    9.20482   -2.00814
      H1   -11.16365    8.92211   -1.66033
       H    -4.74275    5.55723    2.51446
       O    -5.64813    5.43212    2.83058
      H1    -5.89115    6.33535    3.12047
       H   -12.13803    6.26434    1.75398
       O   -11.55415    6.81727    1.23188
      H1   -10.67668    6.73097    1.64979
       H   -10.18761    6.34629   -1.24791
       O   -10.89914    5.71422   -1.22321
      H1   -11.35833    6.00875   -0.36108
       H    -1.81048    3.99025   -4.24324
       O    -1.41323    4.79470   -3.82190
      H1    -1.48339    4.52640   -2.88377
       H    -4.85999    0.50490   -2.48218
       O    -4.24200    0.17258   -1.79713
      H1    -3.87243    0.90405   -1.35307
       H    -9.07368    2.71525   -0.19287
       O    -8.20428    2.26193   -0.21771
      H1    -7.90399    2.35583   -1.15836
       H   -10.00680   -0.87598   -0.67608
       O   -10.10870   -0.08832   -0.11999
      H1    -9.26905    0.41647   -0.15527

