180
frame 2 | Written by MDAnalysis XYZWriter (release 2.4.3)
       H    -1.09646   14.30506   -2.09480
       O    -1.71663   14.04325   -1.40053
      H1    -1.60855   14.81134   -0.81613
       H     8.93100   15.51389   -4.59778
       O     9.63199   16.16198   -4.58297
      H1     9.29214   16.92373   -4.09675
       H     7.37376   16.48885    4.58678
       O     7.00242   15.80321    4.03380
      H1     7.59438   15.08110    4.24145
       H    12.38733   15.05778    1.23907
       O    11.96923   14.92950    2.07808
      H1    11.68088   15.84703    2.25951
       H    -3.02495   15.56368    6.57205
       O    -2.21953   15.04297    6.33934
      H1    -1.49835   15.33641    6.97469
       H    -1.97464   20.05573   -0.65451
       O    -1.28919   19.50155   -0.25851
      H1    -1.53262   18.62598   -0.52880
       H    -0.56547   12.69127   -1.03627
       O    -0.02206   11.96707   -0.77267
      H1     0.43456   11.77457   -1.58144
       H     7.04573   14.55910   -1.72232
       O     7.32159   13.59921   -1.67400
      H1     6.85938   13.20282   -2.37523
       H    -4.71220   18.54332    2.80327
       O    -4.35687   17.77937    3.21033
      H1    -3.51447   17.92313    2.72149
       H    12.02318   17.92540    1.96705
       O    11.42392   17.51488    2.63929
      H1    11.94819   17.50510    3.46517
       H     7.24169   13.14347    0.49755
       O     7.66323   12.50596    1.06810
      H1     7.16454   12.63529    1.94935
       H     3.40538   15.02439   -2.18301
       O     4.13468   15.65391   -2.29041
      H1     3.67020   16.52108   -2.35011
       H     1.76169   17.88397   -0.75602
       O     1.58956   18.20227    0.13366
      H1     0.63868   18.17272    0.16498
       H     4.37680   13.93884    1.58110
       O     3.57771   13.71237    2.03280
      H1     3.84822   14.22449    2.82929
       H     6.86039   17.74470    7.01854
       O     6.90368   18.04487    6.08878
      H1     7.78039   18.47195    6.08905
       H     1.40044   11.49324    2.22702
       O     1.70970   10.61143    2.45466
      H1     1.06077   10.04780    2.00627
       H    -0.18779   13.76351    3.18391
       O    -0.54962   13.91331    4.08568
      H1    -1.42706   14.30087    3.91267
       H     3.73436   12.29140   -1.87256
       O     3.11942   12.74816   -2.52336
      H1     2.52877   12.02487   -2.78211
       H    -2.40657   16.70028   -0.14191
       O    -1.42207   16.75814   -0.30729
      H1    -1.23993   16.86609   -1.26952
       H    12.11119   19.38277   -0.04515
       O    12.39795   18.47345    0.15572
      H1    13.39368   18.52936    0.37510
       H     4.83021   11.26148    0.28393
       O     4.88243   11.59102   -0.58835
      H1     5.77780   12.01240   -0.58441
       H    10.50107   15.75094   -0.36401
       O     9.83802   16.30719    0.08170
      H1    10.35880   17.12137    0.13232
       H     1.99076   13.60415   -1.35991
       O     1.35550   14.29137   -1.17212
      H1     0.80595   13.98917   -0.42512
       H     2.20601   14.78628    5.74675
       O     1.48377   14.10435    5.93269
      H1     0.84834   14.32594    5.20734
       H     0.60120   14.35724   -2.86600
       O     0.00877   14.51227   -3.61969
      H1    -0.46361   13.68543   -3.78330
       H     8.32684   14.03970    5.62817
       O     9.01803   14.45094    5.10990
      H1     9.43766   15.11115    5.70107
       H     3.21722   14.53252   -5.16395
       O     2.32683   14.33035   -5.44168
      H1     1.73768   14.27320   -4.71208
       H     2.73879   19.25783    1.47275
       O     3.42191   19.52143    2.09190
      H1     4.19243   19.01719    1.88425
       H     6.05138   17.84874    2.93345
       O     5.73606   18.64383    3.29926
      H1     6.01528   18.48312    4.27524
       H    -3.32089   15.76638    3.24522
       O    -2.84747   14.92694    3.01245
      H1    -3.14232   14.85472    2.06846
       H     8.68028   13.94333    8.93592
       O     8.75608   14.92540    9.10688
      H1     8.11711   15.12752    8.36882
       H     4.70620   12.56759   -3.43344
       O     5.51754   12.79279   -3.94901
      H1     5.67437   11.97143   -4.38569
       H     9.59354   17.72756    3.15348
       O     8.83145   18.21076    3.60470
      H1     8.42214   18.72886    2.86135
       H     9.15256   14.09186   -2.29280
       O    10.11207   14.31843   -2.07889
      H1    10.09120   15.09363   -2.72169
       H    11.49798   19.12025    3.28497
       O    12.01347   19.90347    3.50562
      H1    12.66278   19.69793    4.18758
       H     6.16112   16.24496    8.36435
       O     6.26894   15.59933    7.69411
      H1     5.48441   15.08461    7.74074
       H     5.51860   12.90663    7.19356
       O     4.59616   13.18732    7.26746
      H1     4.31202   13.57079    6.40363
       H     5.74129   16.27060   -2.10773
       O     6.66941   16.59144   -2.06846
      H1     6.85338   16.92410   -2.99560
       H     6.66075   17.79169    9.98645
       O     6.83950   18.06644    9.12905
      H1     7.76814   18.38133    9.25508
       H    -1.03642   18.34565   -3.53235
       O    -0.87592   17.37002   -3.33672
      H1    -1.32265   17.03718   -4.12861
       H     7.43409   11.57981    6.36234
       O     6.93479   12.33811    6.10355
      H1     6.68202   12.09373    5.23285
       H     5.24835   18.67758   -0.86583
       O     5.51049   18.31334   -0.00124
      H1     6.03426   17.50012   -0.16007
       H     0.77702   18.38410    9.03588
       O     0.07403   17.73648    9.28333
      H1     0.44266   17.18001    9.95327
       H     9.58241   12.54544    1.43020
       O    10.56659   12.49437    1.44550
      H1    10.82733   13.38010    1.64304
       H    -0.18574   16.19726    8.21368
       O    -0.14207   15.24088    7.92658
      H1     0.63641   15.24504    7.27467
       H     1.25524   16.91515    5.05925
       O     2.21783   16.83396    5.23328
      H1     2.49922   17.74872    5.40658
       H    -3.16788   17.65205    6.38345
       O    -2.80137   18.23031    5.70533
      H1    -3.35194   17.91652    5.01817
       H    -2.63099   11.56826    1.94764
       O    -2.16026   11.94864    1.14155
      H1    -1.32862   12.32430    1.49739
       H     7.63149   16.08215    2.07338
       O     7.28892   15.74949    1.24510
      H1     8.12281   15.83682    0.79379
       H     1.06766   17.49895   -3.20368
       O     1.91260   17.39915   -2.73719
      H1     2.34479   18.21318   -3.11016
       H     3.63461   15.41224    4.64672
       O     4.34709   14.75341    4.65104
      H1     5.13499   15.31566    4.78041
       H    10.60707   19.05521    7.26981
       O    11.62149   18.94190    7.23806
      H1    11.92686   19.84204    7.13047
       H    -0.94450   16.45794    3.87066
       O    -0.51721   16.96111    4.57450
      H1    -1.29233   17.21067    5.06207
       H     5.24488   16.03007   -4.72717
       O     4.72809   15.74928   -5.51003
      H1     4.38512   16.58549   -5.87598
       H     0.17749   14.48876    1.52272
       O     0.61472   13.60781    1.61844
      H1     1.56936   13.82411    1.55742
       H    -0.35607   18.82565    3.48544
       O    -0.57869   19.72521    3.53940
      H1     0.18930   20.10263    3.04907
       H     7.49728   17.88548   -5.45047
       O     6.84538   17.70505   -4.70680
      H1     6.25988   18.41832   -4.77002
       H     9.25761   17.09606   -1.53101
       O     9.52022   17.50693   -2.36803
      H1    10.42384   17.12649   -2.51689
       H     0.96224   16.14424    1.80156
       O    -0.00232   16.05740    1.82768
      H1    -0.30827   16.22000    0.93363
       H     5.27999   11.76523    3.26587
       O     6.14536   12.20478    3.50743
      H1     6.72279   11.43582    3.75070

