180
frame 1 | Written by MDAnalysis XYZWriter (release 2.4.3)
       H    15.33168  -17.66995   -1.78971
       O    15.21818  -18.41635   -2.42568
      H1    15.12749  -19.19261   -1.92508
       H    13.92754  -17.34848    1.91093
       O    14.71794  -16.76490    1.81892
      H1    14.56959  -15.96549    2.35850
       H     7.49244  -16.09311    5.25229
       O     8.29477  -15.89639    5.81764
      H1     8.86380  -15.29948    5.26922
       H    11.75218  -12.23457   -3.64996
       O    10.86632  -12.66127   -3.90493
      H1    10.84215  -12.26558   -4.81873
       H    16.41605  -15.38910   -2.25417
       O    17.00688  -15.46411   -3.05382
      H1    17.59735  -16.20481   -2.77062
       H    10.51087  -15.71392   -3.05819
       O    10.54674  -15.91752   -2.13340
      H1    11.29347  -16.51430   -2.05719
       H     6.71083  -19.11894    7.52186
       O     5.98256  -18.57559    7.10766
      H1     6.31818  -18.38459    6.25448
       H     7.62035  -13.20049    3.67643
       O     8.34113  -12.59312    3.72078
      H1     7.87860  -11.78113    3.53684
       H    10.40272  -17.29823    7.45346
       O     9.52485  -17.27249    7.80714
      H1     9.01531  -16.81203    7.02475
       H    17.71397  -13.20666    7.19175
       O    16.86195  -13.58578    7.44467
      H1    16.57637  -14.05392    6.65246
       H    11.13370  -12.72952    1.57784
       O    11.98743  -12.35983    1.89512
      H1    11.84939  -12.03802    2.78912
       H    12.06480  -18.75364   -3.54609
       O    12.30738  -18.18942   -2.78236
      H1    13.27983  -18.30154   -2.63942
       H     9.01957   -9.42893    2.84305
       O     8.32174   -9.98694    2.47531
      H1     7.64658   -9.29435    2.30644
       H    11.78146  -11.39194    0.30453
       O    12.07212  -10.76247   -0.37987
      H1    11.32187  -10.33665   -0.73671
       H     6.61561   -9.92923    6.08043
       O     6.12754  -10.68733    5.80209
      H1     6.74966  -11.39787    5.85256
       H     9.14104  -14.93212   -4.72808
       O    10.06089  -15.00176   -5.09288
      H1    10.40400  -14.19391   -4.67019
       H    10.34293  -16.64913    0.20059
       O    10.33029  -15.98976    0.94012
      H1    10.00307  -15.18687    0.50887
       H    15.85509  -15.21723    0.61829
       O    16.52788  -14.73035    1.08033
      H1    17.21936  -15.40130    1.11776
       H     7.28480  -15.81765   -3.27951
       O     7.52692  -15.27967   -4.07826
      H1     6.91894  -15.66276   -4.73149
       H    13.08902  -12.90530    9.89604
       O    13.29068  -13.41205    9.10957
      H1    14.22924  -13.46864    9.07814
       H     8.81246  -17.04667    2.11700
       O     8.03257  -17.48106    2.51975
      H1     7.77370  -17.92314    1.74212
       H    13.58538  -13.80097    2.80378
       O    13.82542  -14.62663    3.28625
      H1    12.92754  -14.95544    3.43352
       H     6.55838  -17.26565   -1.07452
       O     6.19854  -16.76126   -1.82757
      H1     5.43531  -16.33519   -1.44950
       H    14.26464   -8.39280    0.85668
       O    13.32752   -8.33921    0.68322
      H1    13.14990   -9.30296    0.47838
       H    13.91489  -12.28959   -2.95301
       O    13.18155  -11.65894   -3.11236
      H1    13.19743  -11.22201   -2.25818
       H     9.01398  -18.90927   -2.89610
       O     8.92487  -19.22721   -2.00454
      H1     8.81411  -20.19226   -2.06888
       H    12.39081  -10.25301    5.12333
       O    12.09731  -10.85276    4.42469
      H1    11.62354  -10.20775    3.91003
       H    17.44596  -18.05774   -0.64432
       O    17.14984  -18.74082   -0.01720
      H1    17.55723  -18.47798    0.78178
       H     6.96919  -13.32771    7.31583
       O     7.84645  -13.12262    7.01709
      H1     8.23239  -14.02911    6.71800
       H     4.55822  -15.85068    1.02429
       O     4.82701  -16.38227    1.77679
      H1     4.95652  -17.26186    1.42071
       H     5.12652  -12.84173    0.95609
       O     4.36156  -13.03013    0.43007
      H1     4.48004  -12.49261   -0.34367
       H    12.68155  -15.17122    9.35128
       O    12.51567  -16.03142    9.75535
      H1    13.26002  -16.13304   10.34242
       H    14.40167  -15.80828    4.82879
       O    15.14431  -16.26622    5.23678
      H1    14.95106  -17.24329    5.19171
       H    17.91157  -17.71962    3.45685
       O    18.06109  -18.23298    2.62815
      H1    18.90499  -18.70723    2.77922
       H    12.60750  -19.24080    2.56349
       O    12.84238  -18.43464    3.08209
      H1    13.11741  -18.78532    3.94982
       H     8.65597  -10.99424    7.50208
       O     8.43400  -10.06143    7.39649
      H1     8.95928   -9.89189    6.55520
       H    14.68573  -15.84484    7.47924
       O    14.79736  -16.09539    8.43050
      H1    13.83495  -16.30511    8.64716
       H    14.80614  -16.42391    0.08560
       O    15.02643  -16.22244   -0.84136
      H1    14.25182  -15.72760   -1.12111
       H    15.52010   -9.64744   -0.94302
       O    15.04005  -10.52346   -0.92797
      H1    15.76582  -11.16260   -0.92553
       H     5.41890  -13.97626    3.41010
       O     6.05644  -13.90285    2.74241
      H1     6.06977  -14.82470    2.44089
       H    12.48577  -16.40771    6.88569
       O    12.18498  -17.32120    6.89483
      H1    12.80361  -17.73792    7.48940
       H     9.38094  -12.58558   -2.85322
       O     8.70477  -12.74307   -2.20011
      H1     8.02038  -12.22186   -2.64896
       H    10.77362  -14.49179    4.30090
       O    10.40796  -14.02152    5.09109
      H1     9.88396  -13.30739    4.66582
       H     5.11238  -17.05586    4.40842
       O     6.07860  -17.04237    4.59201
      H1     6.53924  -17.08987    3.66136
       H     9.15958  -17.44038   -4.91076
       O     9.72563  -18.14749   -4.63801
      H1     9.45933  -18.91022   -5.17040
       H    10.98496  -15.88824    2.53868
       O    11.50173  -15.95350    3.36454
      H1    11.92542  -16.82230    3.29700
       H     9.17112   -9.19952   -1.97313
       O     9.77093   -9.78119   -2.46564
      H1     9.41610  -10.66103   -2.35765
       H    12.74019  -13.87268    7.47413
       O    12.66056  -14.50407    6.73633
      H1    11.84154  -14.16627    6.30628
       H     7.53377  -10.36656    0.71725
       O     6.75528  -10.21737    0.16966
      H1     6.12015   -9.69616    0.68363
       H     8.42582  -13.09092    0.83283
       O     9.38611  -13.17728    0.63016
      H1     9.29530  -12.96370   -0.30067
       H    13.00186  -13.67864   -0.16063
       O    13.02483  -14.36626   -0.82187
      H1    12.08484  -14.38515   -1.11576
       H     9.14107  -16.99903   10.83593
       O     9.21358  -16.11827   10.34379
      H1     9.48619  -16.44854    9.39953
       H    13.79831  -11.06386    2.18614
       O    14.61979  -11.09344    2.71622
      H1    15.28980  -11.43776    2.07516
       H    14.84523   -9.71313    4.33151
       O    15.46805   -9.67102    5.05164
      H1    16.16142  -10.30329    4.87019
       H    16.83820  -13.06089    1.28458
       O    16.81923  -12.08879    0.98661
      H1    17.72818  -11.86862    1.20658
       H    16.90012  -16.20061    5.19877
       O    17.88395  -16.11433    5.07437
      H1    18.19905  -16.17346    6.03084
       H    17.04288  -14.46275    4.40799
       O    16.35380  -13.80347    4.49138
      H1    15.59920  -14.13168    3.97094
       H     7.87579  -18.83325   -0.70769
       O     7.25666  -18.59107    0.03540
      H1     6.43730  -19.08773   -0.10975
       H     8.81467  -19.62624    6.15200
       O     8.63094  -19.82882    7.06914
      H1     9.01103  -19.03095    7.45809
       H    10.36274  -19.13332   -0.52958
       O    11.17613  -18.62171   -0.29480
      H1    11.54625  -18.45473   -1.17791

