180
frame 2 | Written by MDAnalysis XYZWriter (release 2.4.3)
       H     5.37823   11.69505   15.25033
       O     6.19902   11.27548   14.95368
      H1     6.91828   11.93966   15.14700
       H    15.30879    9.74034   18.34550
       O    15.57546   10.07209   19.20905
      H1    16.41906   10.55746   18.95043
       H    10.38038   14.50141   13.11683
       O    10.12015   13.91535   12.33224
      H1     9.20924   14.18718   12.32776
       H     9.88703   11.54616   12.01687
       O     9.49676   10.68609   12.12288
      H1    10.16606   10.04584   11.81336
       H    12.40791   14.14361   17.93049
       O    13.26658   14.10302   18.29981
      H1    13.50861   15.09094   18.46949
       H    13.31952    6.64458   11.77573
       O    13.98027    6.19257   11.27462
      H1    14.75530    6.29309   11.83113
       H    10.45888    7.68304   13.96562
       O     9.76642    7.12000   13.61990
      H1    10.28026    6.85480   12.81011
       H     9.84031   17.97262   17.62997
       O    10.44879   17.20675   17.79154
      H1    11.28021   17.69381   17.72613
       H    10.43787   19.81145   15.34621
       O    11.31522   19.44157   14.96226
      H1    11.74604   19.19019   15.74635
       H    17.85446   11.72679   11.68247
       O    17.93064   11.56574   12.66457
      H1    17.63252   10.63417   12.62113
       H    13.84017    8.60837   17.97928
       O    14.22965    9.06786   17.17039
      H1    13.54059    9.74055   16.86472
       H    17.51898   15.78131   11.98537
       O    17.40760   15.44920   11.07401
      H1    17.38536   16.23159   10.47930
       H    14.25727    9.78428   14.96749
       O    14.81328    9.62394   14.11424
      H1    15.18734    8.80326   14.35452
       H    13.82525   12.88247   11.72391
       O    14.01051   12.80622   10.79677
      H1    14.98557   12.69192   10.83816
       H     9.24365   11.69387   14.14918
       O     9.00668   12.29298   14.89123
      H1     9.17106   13.21137   14.59448
       H    13.29697   10.11221   11.33111
       O    12.53794    9.74448   10.86167
      H1    12.84942    9.56339    9.92940
       H    10.62755   15.63300   11.31741
       O    10.72701   16.58898   11.49754
      H1    10.45250   16.80554   12.44627
       H     9.00850   17.76666   14.12479
       O     9.91947   17.40468   14.23345
      H1    10.43533   18.11017   14.62717
       H    11.39314   15.11150   15.09119
       O    11.64253   15.10661   14.09298
      H1    11.47308   15.99410   13.79407
       H    19.22269   13.91702   19.42506
       O    18.47285   13.34213   19.66965
      H1    18.18475   12.78224   18.85907
       H    18.44234   15.99954   13.91784
       O    17.74383   16.61994   13.76952
      H1    16.99235   15.97084   13.76887
       H    17.98787   16.17059   18.10051
       O    18.92603   16.06211   17.83392
      H1    19.32174   16.53668   18.61001
       H    13.11191    8.63692   13.65453
       O    12.56920    7.95560   13.23832
      H1    12.51800    8.39047   12.36626
       H     7.73650   15.38903   14.50472
       O     8.42811   15.09007   15.10228
      H1     9.13672   15.61770   14.76388
       H    13.51587   17.28794   18.20127
       O    13.64586   16.74654   19.02481
      H1    14.59733   16.81654   18.97918
       H     9.96836   11.65814   15.97600
       O    10.43886   11.23867   16.78567
      H1     9.93800   10.36266   16.82504
       H    17.60888   13.28784   16.18764
       O    17.50766   13.87761   16.99523
      H1    18.10918   14.60970   16.79566
       H    18.25375   10.49678   17.76957
       O    17.69095   11.15756   18.24433
      H1    17.18138   11.47728   17.48660
       H     8.68028   13.94333    8.93592
       O     8.75608   14.92540    9.10688
      H1     8.11711   15.12752    8.36882
       H    16.22083   19.14123   12.54320
       O    15.90453   18.68239   11.75466
      H1    14.98888   18.93804   11.77558
       H    14.09961   14.67768   10.53173
       O    14.41445   15.55890   10.76746
      H1    15.38490   15.40187   10.71525
       H    13.29209   11.43922   15.92652
       O    12.81556   10.61752   15.69565
      H1    11.85488   10.75786   15.97996
       H     6.76829   18.09693   14.27046
       O     7.40435   18.06379   13.57651
      H1     6.84728   17.73986   12.81690
       H     9.51851   12.28518    9.07546
       O     8.60614   12.37754    8.65525
      H1     8.04638   12.29370    9.47445
       H    10.25639   19.52082    9.69660
       O     9.56345   18.78752    9.88495
      H1    10.23090   18.13818   10.16296
       H    13.37702   12.04339   18.54460
       O    13.15008   11.29893   19.10163
      H1    13.96217   10.71287   19.22452
       H    10.05387   15.17812    7.64465
       O    10.75471   15.19182    7.01000
      H1    11.10521   14.29100    7.04383
       H    10.90232   15.75323   17.26132
       O    10.93338   14.88030   16.77592
      H1    10.06895   14.50024   17.17185
       H    17.28211   13.53979   10.43612
       O    16.98249   12.61021   10.37866
      H1    17.09265   12.40456    9.44146
       H     8.36380    8.55772   14.13771
       O     8.00794    8.88415   15.00200
      H1     7.65223    9.77628   14.81211
       H    16.22292   10.80745   15.30559
       O    16.68575   11.66028   15.39793
      H1    17.01087   11.67938   14.50811
       H    12.48279   19.50827   17.69377
       O    12.72476   18.73054   17.12781
      H1    13.65318   19.06635   16.91492
       H     8.11077   11.46710   11.50861
       O     7.53979   12.18150   11.07564
      H1     6.86818   11.64102   10.60770
       H    16.41174   18.65389   16.04280
       O    15.46257   18.69347   16.07344
      H1    15.26843   19.46719   15.52672
       H    13.30794   17.18905   10.28165
       O    12.70146   17.79395    9.75642
      H1    12.24449   17.27357    9.10535
       H    12.90949   13.48373   13.94760
       O    13.15138   12.71496   13.35439
      H1    13.92481   12.33001   13.85621
       H    14.55182   15.04243    7.27951
       O    14.60772   14.30647    7.90019
      H1    14.42283   14.74602    8.72485
       H    14.14793   11.19825    7.94950
       O    13.45480   10.53353    8.25340
      H1    13.40923    9.90068    7.49217
       H    12.48099   12.06970    7.78342
       O    12.43224   12.85138    7.20078
      H1    13.14250   13.38182    7.57982
       H    16.30820   17.79388   18.94138
       O    16.23403   16.79568   18.87047
      H1    16.49547   16.54718   19.75145
       H     7.48656   13.87305   11.47825
       O     7.59890   14.61881   12.05896
      H1     8.15915   15.22318   11.48756
       H    16.40115   12.24663    6.93631
       O    17.10494   12.54257    7.58179
      H1    16.79970   13.45496    7.86503
       H    14.25272   13.29928   16.91973
       O    14.27207   12.94108   16.01341
      H1    15.20702   12.67313   16.02508
       H    14.72084   15.16231   13.03914
       O    15.41901   15.14703   13.72274
      H1    14.95750   15.16970   14.56028
       H     9.13811   11.75863   19.48772
       O    10.00117   12.12891   19.70891
      H1    10.60295   11.92139   18.98718
       H    17.98116   17.67478   15.33447
       O    18.18295   18.19745   16.12872
      H1    18.26104   17.49035   16.82621
       H    11.08650   12.94255   10.50143
       O    10.88089   12.04409   10.16780
      H1    11.66932   11.57065   10.33189
       H     8.31458   14.63726   16.89499
       O     8.51686   14.22207   17.80386
      H1     8.47895   13.27335   17.63862
       H    11.30169    8.45046   17.57164
       O    10.35532    8.51951   17.90828
      H1     9.89277    7.80503   17.42009
       H    18.51297    8.16083   11.98748
       O    17.63140    8.37946   12.25575
      H1    16.99661    7.98990   11.70328

