180
frame 0 | Written by MDAnalysis XYZWriter (release 2.4.3)
       H    -0.63364    2.57496   13.37749
       O    -1.39253    3.07256   13.01404
      H1    -1.48231    2.78437   12.08651
       H     6.97636    3.88060   17.11847
       O     6.33991    4.56359   16.85638
      H1     5.87374    4.76205   17.71094
       H     4.52416    4.73678   12.36447
       O     4.77920    4.09314   11.70218
      H1     4.39055    3.30714   12.07741
       H     5.55583    8.66749   14.77563
       O     5.63453    7.96194   15.43357
      H1     5.54419    7.12344   14.94698
       H    -2.82794    4.86554   18.10749
       O    -2.65998    4.82976   17.13634
      H1    -1.97139    4.11651   17.05285
       H     7.14634    2.50770   15.46593
       O     7.92303    2.86439   15.00543
      H1     7.66372    3.00839   14.06936
       H    -0.77318    0.39662    6.60244
       O    -0.29778    0.48124    7.46262
      H1    -0.23074    1.42633    7.62499
       H    -0.25258    3.28256   16.07645
       O    -0.84846    2.97468   16.78529
      H1    -1.33347    2.17413   16.42161
       H     6.74112    3.30508   11.88436
       O     7.61258    2.98007   12.27337
      H1     7.73910    2.19744   11.76172
       H     8.96221   -0.00207   12.33278
       O     9.05369   -0.99193   12.39691
      H1     8.98189   -1.22440   13.34036
       H     2.85391   -1.76656   14.55303
       O     3.73640   -1.69043   14.96280
      H1     3.58379   -0.92250   15.49631
       H     4.81776    4.40822    9.91234
       O     4.81484    4.76261    8.99999
      H1     4.07924    4.21477    8.61856
       H     3.16644    7.99045   10.10936
       O     3.49649    8.69827   10.69629
      H1     3.19692    8.30524   11.53473
       H    -2.40860    4.58384    8.75785
       O    -2.99980    4.05380    8.16920
      H1    -3.79485    4.63956    8.11987
       H    -2.80463    0.46336   16.88875
       O    -2.25376   -0.23214   17.29837
      H1    -2.05189    0.21083   18.12839
       H    -0.44399    3.50829    9.53550
       O     0.06311    3.01400    8.90483
      H1     0.93160    3.38526    8.74965
       H     1.16553    0.07594   17.75550
       O     1.27290   -0.67246   17.10725
      H1     1.98671   -1.18449   17.43886
       H     4.07890    0.13038    8.68855
       O     4.33021    0.13253    7.72778
      H1     4.39429    1.08608    7.68329
       H     3.77952    2.98507    6.79850
       O     3.09963    3.05729    7.46971
      H1     2.37459    3.47480    7.03901
       H    -1.31087   -1.25416    8.11069
       O    -1.23799   -2.16178    8.44186
      H1    -1.32298   -1.96762    9.41638
       H     2.73238    6.33938   12.02093
       O     3.24004    6.78379   12.73443
      H1     2.59047    7.40241   13.04184
       H     2.25678    0.47711   10.02126
       O     3.12406    0.14094   10.11129
      H1     3.05159   -0.78566    9.88814
       H    -4.31969    2.67400   13.04315
       O    -3.78527    1.86745   13.24332
      H1    -2.86711    2.15624   13.29635
       H     6.63332   -1.67283   11.39754
       O     6.25345   -1.78145   10.53954
      H1     6.52561   -2.72014   10.39590
       H     0.60441    5.13057   11.30430
       O     1.48856    5.02458   11.73245
      H1     1.52727    4.16658   12.13307
       H     4.35157    5.01416   15.15686
       O     3.65556    4.58368   15.72103
      H1     4.17749    4.10352   16.34427
       H    -0.37441    6.31858   15.90275
       O    -0.41506    6.37992   14.90703
      H1    -1.33477    6.43281   14.58814
       H     0.67555    4.84757   14.35062
       O     0.98870    4.00322   14.70844
      H1     1.94026    4.24734   14.88361
       H    -1.59266    8.22093   10.27321
       O    -0.68249    7.92179   10.52056
      H1    -0.42787    7.46881    9.68339
       H     0.01060   -2.85350   13.17782
       O    -0.79271   -3.17556   13.63579
      H1    -1.43132   -2.44057   13.47245
       H     2.61137    7.54515   17.79082
       O     2.86438    8.15464   17.09525
      H1     3.56892    7.68414   16.67552
       H    -1.33521    3.36174    6.99364
       O    -1.12681    3.47970    6.04442
      H1    -0.27542    3.91815    6.12531
       H     5.09787    1.31999   16.71079
       O     5.86666    1.20068   16.10508
      H1     6.51111    0.64784   16.54381
       H     1.58066    2.51253   18.86880
       O     0.97395    1.86211   18.49058
      H1     0.22573    2.48343   18.29779
       H     1.66859   -0.25039   12.67831
       O     1.40488   -0.84354   13.39226
      H1     1.00155   -0.18860   13.93264
       H    -0.96974   -0.38708   14.62254
       O    -0.47190    0.37599   14.89836
      H1    -0.03973   -0.02292   15.64075
       H     2.87162    1.54658   18.14517
       O     3.51698    1.70481   17.42262
      H1     2.98386    1.82736   16.60173
       H     9.07642    1.63448    9.76577
       O     8.63177    1.19269   10.51107
      H1     8.09194    0.51497   10.08101
       H     0.87089   -2.20671    8.85272
       O     1.52144   -2.18305    9.56313
      H1     2.32115   -2.49531    9.06443
       H    -0.74510   -2.89534   15.31753
       O    -0.93790   -2.88865   16.26037
      H1    -0.87846   -1.98631   16.56752
       H     5.04901    0.78591   13.02865
       O     4.25213    1.19735   12.59737
      H1     4.11469    0.58792   11.85130
       H    -3.49497    1.89875   15.04065
       O    -3.33827    2.15261   15.94104
      H1    -3.26901    3.10761   15.83983
       H     0.55284    1.44970   11.26115
       O     0.59433    0.88813   10.45270
      H1     0.44405    1.62649    9.75734
       H     1.12170   -0.87618    6.87168
       O     1.72467   -1.10332    6.16595
      H1     2.16964   -0.23643    6.02463
       H     4.81845    7.87306    8.24925
       O     3.92503    7.53562    8.06844
      H1     4.18412    6.59819    7.98975
       H    -2.86222    5.70767   15.45916
       O    -3.15746    6.26353   14.69781
      H1    -3.87737    6.81265   15.15951
       H     4.99513   -1.28333   13.87504
       O     5.86028   -1.14052   13.43450
      H1     6.56784   -1.21318   14.02632
       H    -2.27997    5.09027   10.88980
       O    -1.46685    5.34885   10.46069
      H1    -1.43624    6.32860   10.59150
       H    -2.58733   -0.09703   10.48021
       O    -1.98797   -0.82466   10.78335
      H1    -1.14583   -0.34569   10.60350
       H     0.24599    7.95180   12.59574
       O     0.91493    8.18019   13.24430
      H1     0.50792    7.71936   14.06772
       H    -2.15588   -0.93095   12.58950
       O    -2.38484   -0.95591   13.55633
      H1    -3.24037   -1.46013   13.56476
       H     6.35764    4.99251   15.19465
       O     6.14172    5.53713   14.39149
      H1     6.97234    5.54131   13.84435
       H     7.46607    5.74696    8.57151
       O     7.92088    5.21847    9.24471
      H1     7.33980    4.47196    9.27668
       H     2.54624    1.96100   12.78215
       O     1.66449    2.39348   12.57371
      H1     1.43508    2.82049   13.47053
       H    -3.32094    2.65294    9.26329
       O    -3.39910    1.78355    9.74473
      H1    -4.09999    1.98903   10.36422
       H     4.97770   -3.55099   15.31627
       O     5.73813   -3.63660   15.92565
      H1     6.44063   -3.15527   15.42537
       H     9.49098    0.96987   16.50552
       O     9.51172    0.64294   15.59251
      H1     9.05336    1.38407   15.11778
       H     4.76094   -2.71791    8.58834
       O     3.98121   -3.24824    8.73322
      H1     4.29123   -3.82137    9.45460
       H     1.25206   -4.72397   11.43157
       O     1.29475   -3.81367   11.73684
      H1     1.44286   -3.29846   10.93543
       H     3.08510   -3.82560   11.93900
       O     3.97658   -3.89118   11.60533
      H1     4.38424   -3.26583   12.21048

