180
frame 0 | Written by MDAnalysis XYZWriter (release 2.4.3)
       H    15.43687  -17.22989   -2.36886
       O    14.75625  -17.90508   -2.37816
      H1    14.98871  -18.46611   -1.54423
       H    14.17976  -16.81157    2.70103
       O    14.89097  -16.20582    2.34138
      H1    14.51360  -15.40172    2.74247
       H     7.95161  -15.91013    6.07932
       O     8.35913  -15.55775    6.88953
      H1     9.04955  -14.98078    6.49648
       H    15.89134  -15.29118   -1.99341
       O    16.37836  -15.57496   -2.80029
      H1    17.26191  -15.79384   -2.40656
       H    10.34647  -15.52530   -2.71313
       O    10.73512  -15.66302   -1.87425
      H1    11.01453  -16.57268   -1.93084
       H     6.95201  -18.80849    7.14602
       O     6.02020  -18.58339    6.76919
      H1     6.27044  -17.92760    6.09961
       H     8.00473  -13.21209    2.37071
       O     8.95168  -12.93408    2.52046
      H1     8.92967  -11.91518    2.75436
       H    10.61731  -17.36111    7.38088
       O     9.99462  -17.27960    8.08505
      H1     9.34736  -16.71223    7.62746
       H    17.95812  -13.57039    7.75370
       O    17.02763  -13.61472    7.47035
      H1    17.05637  -13.83844    6.53031
       H    11.18199  -12.81243    2.47446
       O    11.90621  -12.20230    2.33608
      H1    11.50726  -11.50323    2.91499
       H    12.19611  -19.12436   -2.58506
       O    12.05092  -18.25108   -2.15702
      H1    12.88333  -17.80694   -2.35967
       H    11.62788  -11.62285    0.46699
       O    11.83348  -11.16597   -0.36369
      H1    11.16248  -11.50923   -0.97689
       H    14.60372  -19.70511    6.37884
       O    14.74787  -19.21553    5.57115
      H1    15.15664  -19.83290    4.99722
       H    10.76764  -16.86303    0.76720
       O    10.40584  -16.06338    1.22450
      H1    10.32641  -15.36082    0.54225
       H    19.52871  -13.41668    2.56643
       O    18.70209  -12.96537    2.44997
      H1    19.08278  -12.08990    2.58687
       H    16.86779  -14.82310   -0.20081
       O    17.66549  -14.31915    0.03509
      H1    17.49548  -14.25533    0.98278
       H    12.93656  -12.69991    9.70009
       O    13.21299  -13.44334    9.14867
      H1    14.18782  -13.39463    9.36497
       H     9.57276  -16.71206    2.95720
       O     8.83247  -17.28262    3.12767
      H1     8.38988  -17.33174    2.30737
       H    13.47141  -13.11585    2.89283
       O    14.21380  -13.64162    3.19121
      H1    14.04032  -13.99795    4.09341
       H     7.42898  -17.04596   -0.75208
       O     7.46844  -16.46155   -1.48038
      H1     6.81639  -15.83084   -1.19042
       H    17.52606  -19.57062   11.37813
       O    17.78653  -19.67526   10.47903
      H1    17.68321  -18.73518   10.15607
       H    13.78740  -12.59114   -3.35982
       O    12.85357  -12.27222   -3.33278
      H1    12.60815  -12.56722   -2.38796
       H    11.08620   -9.91480    4.89728
       O    11.12802  -10.63549    4.22176
      H1    10.16815  -10.76324    4.05456
       H    17.51201  -18.10200   -0.87839
       O    17.08186  -18.79468   -0.30405
      H1    17.65718  -18.58863    0.48323
       H     6.24756  -13.24152    7.82441
       O     7.13889  -13.22229    8.12400
      H1     7.47640  -14.05181    7.68383
       H     4.60445  -16.56957    2.12302
       O     5.12164  -16.37403    2.89551
      H1     4.42972  -16.56171    3.58090
       H    18.21618  -16.94418    8.48326
       O    17.77765  -17.15941    9.33446
      H1    16.95559  -16.64502    9.25469
       H    12.75833  -15.72103    9.29269
       O    12.69491  -16.65433    9.08500
      H1    13.14254  -17.02452    9.91169
       H    15.63548  -16.11634    4.03935
       O    15.71334  -16.27630    5.02650
      H1    15.52934  -17.19411    5.12228
       H    18.27511  -18.10556    2.85812
       O    18.48626  -18.11786    1.89841
      H1    19.27993  -18.71824    1.92000
       H     9.87506  -20.14359    4.28978
       O     9.71006  -19.20930    4.65411
      H1     9.48290  -18.72179    3.85503
       H    13.15698  -19.01114    2.49222
       O    13.09106  -18.16781    2.96217
      H1    12.28989  -18.38573    3.49973
       H    16.19165  -18.91958    6.54460
       O    16.90334  -18.76862    7.22532
      H1    16.61419  -18.00176    7.67689
       H    15.92781  -15.22670    8.01028
       O    15.52059  -15.97075    8.51964
      H1    14.66925  -16.16583    8.13495
       H    14.65969  -15.80788    0.48576
       O    14.86215  -15.48339   -0.41834
      H1    13.98345  -15.10388   -0.58468
       H     5.97285  -13.45528    1.86895
       O     6.47995  -13.96948    2.49685
      H1     5.99125  -14.78729    2.60329
       H    12.35128  -16.28281    6.53069
       O    12.07900  -17.13433    6.09661
      H1    12.81449  -17.73178    6.25872
       H    11.63987  -19.24057   10.69895
       O    10.89668  -19.18346   10.07032
      H1    11.08076  -18.36958    9.61529
       H    10.51075  -14.57326    4.91615
       O     9.68815  -14.19949    5.16366
      H1     9.47608  -13.96387    4.23850
       H     6.18662  -16.74784    4.29760
       O     6.82949  -16.84806    5.02122
      H1     7.58524  -17.09488    4.38086
       H    10.54935  -18.80946   -3.90313
       O     9.58145  -18.81189   -3.84790
      H1     9.44173  -19.36460   -4.61331
       H    11.45940  -15.95770    3.14886
       O    11.75954  -15.38708    3.89642
      H1    12.08119  -16.03313    4.56098
       H    12.66244  -14.12379    7.41189
       O    12.64800  -14.47906    6.50452
      H1    12.22581  -13.79915    5.96798
       H     9.49256  -13.21800    0.54845
       O    10.07777  -13.33278   -0.20005
      H1     9.44540  -13.25995   -0.95033
       H    12.70177  -13.28030   -0.47553
       O    12.81933  -14.01348   -1.06838
      H1    11.93587  -14.42842   -1.08185
       H     9.32353  -17.41081   11.09941
       O     9.43035  -16.37947   11.06530
      H1     9.83102  -16.33675   10.17080
       H    16.31546  -13.29816    9.09209
       O    15.83287  -13.13028    9.94757
      H1    16.30559  -13.62803   10.61517
       H    14.75594  -11.44627    1.22761
       O    15.01216  -10.85902    1.93503
      H1    15.69171  -11.37317    2.35420
       H    17.20394  -10.32562    6.14471
       O    17.38326  -10.29839    5.16572
      H1    17.21006  -11.23369    4.92905
       H    19.20623  -16.54938   -1.47597
       O    18.66605  -16.97706   -2.15144
      H1    19.23023  -17.41595   -2.75546
       H    15.98474  -16.45813   -4.14024
       O    15.51297  -16.95544   -4.86197
      H1    15.12378  -17.71087   -4.35525
       H    14.18950  -10.83888    4.93122
       O    14.65183  -10.23368    5.50780
      H1    15.54337  -10.26523    5.15870
       H     5.17125  -18.20262   -2.32289
       O     5.95300  -18.22516   -2.90176
      H1     6.67068  -17.75138   -2.49649
       H    17.43894  -12.43824    0.04101
       O    17.56580  -11.49838    0.28096
      H1    18.36096  -11.63080    0.86083
       H    17.52194  -16.62266    4.86990
       O    18.43612  -16.91904    4.79119
      H1    18.74622  -16.96512    5.68966
       H    17.38852  -13.01760    3.44656
       O    16.61965  -12.73472    4.04603
      H1    15.92879  -13.16913    3.52360
       H    14.01391  -19.16091   10.45646
       O    13.83445  -18.31706   10.97276
      H1    14.25375  -18.47052   11.78882
       H     8.28470  -18.50572    0.38241
       O     7.45292  -18.19359    0.79910
      H1     6.93293  -18.99289    0.63635
       H     8.76665  -19.34684    6.24571
       O     8.54272  -19.51634    7.21125
      H1     8.90978  -18.68588    7.55442
       H    10.61297  -18.61235   -0.08752
       O    11.43657  -18.26974    0.39770
      H1    12.00474  -18.26955   -0.42368

