180
frame 6 | Written by MDAnalysis XYZWriter (release 2.4.3)
       H     0.24057   15.19416  -13.25488
       O     0.29099   16.10078  -12.78155
      H1     0.66461   16.68007  -13.48634
       H    10.61491   11.50657  -15.74918
       O    10.68732   12.44382  -15.44057
      H1    11.12788   12.27564  -14.64293
       H     3.53321   16.58228  -18.31468
       O     3.81164   16.59930  -19.22911
      H1     3.01341   16.91157  -19.66868
       H     6.46716   12.37319  -11.39152
       O     6.27510   12.95986  -10.60219
      H1     5.51373   13.49236  -10.86304
       H     2.76558   10.70483  -12.28770
       O     3.69165   10.98041  -12.18024
      H1     3.74156   10.82869  -11.22394
       H    -3.34747   17.54033  -12.90101
       O    -3.49863   18.50874  -13.03835
      H1    -3.42926   18.63837  -14.00965
       H     8.42183   12.85048  -18.55759
       O     8.10118   12.06582  -18.98659
      H1     7.11922   12.07949  -18.90775
       H     6.58988    9.21122  -15.29669
       O     7.26053    9.82535  -14.90406
      H1     6.89009   10.69937  -15.21465
       H     7.50191   15.74190  -15.57343
       O     8.38756   16.09008  -15.54278
      H1     8.24467   17.04173  -15.66278
       H    10.61657   17.32192  -17.37391
       O    10.41508   16.51145  -17.80157
      H1     9.60001   16.24188  -17.41620
       H    -2.95065   15.03321  -15.30169
       O    -2.52432   14.17092  -15.28477
      H1    -2.76429   13.77752  -14.42467
       H     5.53215   17.14690  -14.77298
       O     4.55407   17.41606  -14.61579
      H1     4.53354   18.34347  -14.61089
       H    -5.79777   18.17562  -17.25557
       O    -6.00056   17.61322  -16.53236
      H1    -6.55584   18.21206  -15.98352
       H    12.08645   15.71943  -17.16579
       O    12.83288   15.44325  -16.65212
      H1    13.00669   14.55653  -16.93235
       H     1.63687   16.26100  -11.57379
       O     2.17845   16.40094  -10.78056
      H1     2.20083   17.37813  -10.74920
       H    -1.64867   18.89681  -17.88303
       O    -1.65147   18.39897  -17.00494
      H1    -1.24292   19.09442  -16.42823
       H     8.22183   13.02068  -14.28749
       O     7.88011   12.73552  -15.17210
      H1     8.65145   12.40620  -15.65442
       H     1.92790   13.57934  -18.66227
       O     1.79857   14.11606  -17.84672
      H1     2.15655   14.90862  -18.22668
       H    -1.29223   11.51226  -19.55173
       O    -1.24769   10.98142  -18.69748
      H1    -1.67299   11.58788  -18.06889
       H     6.98981    6.62590  -18.10337
       O     6.49575    7.46762  -18.13538
      H1     7.22861    8.09816  -17.96703
       H     4.69402   12.46691  -15.92442
       O     4.66337   11.53581  -16.19833
      H1     4.83488   11.70260  -17.15901
       H     2.51267   11.85973  -15.74459
       O     1.49346   11.95503  -15.74952
      H1     1.41774   12.64688  -16.47990
       H    -5.03628   12.39730  -20.08577
       O    -5.48993   12.94817  -19.39219
      H1    -6.23902   12.27185  -19.20849
       H     4.31713    7.03713  -15.71108
       O     3.35637    6.89488  -15.89497
      H1     2.94030    7.62896  -15.38351
       H     2.73703   19.65466  -16.95553
       O     1.76466   19.65907  -16.97118
      H1     1.58904   18.88382  -16.37523
       H     6.59145    6.53391  -15.21534
       O     5.96611    7.21581  -15.47775
      H1     6.13158    7.27659  -16.44297
       H    -0.11854    7.13957  -18.64313
       O     0.39541    6.94198  -17.87035
      H1     0.90678    7.76878  -17.77984
       H    11.24179   15.29801  -14.61367
       O    11.31316   15.84869  -13.79800
      H1    11.50119   16.75983  -14.19885
       H     2.24948    9.90730  -15.66036
       O     3.02465    9.49962  -15.30435
      H1     3.65051   10.24982  -15.55727
       H     9.61161   18.74675  -15.20416
       O     8.73122   18.85744  -15.68285
      H1     9.09999   19.29039  -16.51112
       H    -0.83002   14.67445  -18.72264
       O    -1.43976   14.58049  -19.42103
      H1    -2.19830   14.17641  -19.08723
       H    10.49066    9.23109  -15.87985
       O     9.71213    9.74208  -16.25830
      H1     9.00916    9.71835  -15.58592
       H     0.90806   12.14853  -12.59843
       O     1.18611   12.89997  -13.21725
      H1     1.26155   12.44600  -14.03842
       H    -1.45296   15.95353  -11.96657
       O    -2.44046   15.92259  -11.81847
      H1    -2.54025   15.72131  -10.90459
       H    -0.42054   11.09449  -15.10636
       O    -0.75489   10.37864  -14.53063
      H1    -0.05054   10.40759  -13.87466
       H    -2.61204   12.51180  -11.90647
       O    -1.78123   12.94380  -11.99538
      H1    -1.99080   13.79495  -11.68817
       H     6.51399   18.43215  -19.63428
       O     5.62630   18.85615  -19.40704
      H1     5.06434   18.02851  -19.41547
       H     4.98597   13.43369  -19.34802
       O     5.32893   12.72258  -18.72798
      H1     5.51123   13.36427  -18.05812
       H     0.55713   18.87728  -14.29332
       O     1.28307   18.22971  -14.36402
      H1     1.91087   18.60053  -13.65404
       H    -3.04490   11.01175  -14.55796
       O    -3.78888   11.50167  -14.91886
      H1    -3.96444   10.99391  -15.68865
       H    -0.58790    7.73394  -16.58047
       O    -1.19137    7.70225  -15.84029
      H1    -0.91136    8.51655  -15.42090
       H    11.41179   19.15591  -14.55000
       O    10.79140   18.57929  -14.06158
      H1    10.12735   19.18165  -13.68138
       H    -0.44808   17.98944  -12.36874
       O    -0.40427   18.81436  -11.90880
      H1    -1.32049   19.12004  -11.94440
       H     9.35408   14.92376  -13.59222
       O     8.92188   14.20743  -13.06201
      H1     8.03992   14.58767  -12.92647
       H     4.04846   13.91491  -14.22746
       O     3.96287   13.90399  -15.18912
      H1     4.44445   14.72593  -15.36157
       H     1.70549    9.93983  -18.26776
       O     0.98028    9.52401  -17.73658
      H1     0.19084   10.07019  -17.97593
       H     1.59907   16.38294  -16.31054
       O     2.50298   16.66918  -16.62185
      H1     3.02063   16.86395  -15.81423
       H     6.26686   14.44149  -13.49285
       O     6.14372   15.34013  -13.64005
      H1     5.79787   15.70673  -12.84326
       H     2.80661   13.56078  -12.37026
       O     3.78375   13.48488  -12.21016
      H1     3.93652   12.51667  -12.22911
       H    -4.19674   16.70481  -15.76164
       O    -3.32049   16.73907  -15.29319
      H1    -2.82340   17.24113  -15.94238
       H    -4.17033   12.90643  -17.93564
       O    -3.23085   12.92818  -17.72246
      H1    -3.26484   13.32562  -16.82078
       H     3.05848    9.64612  -19.84450
       O     3.35253   10.19047  -19.08143
      H1     4.04542    9.73925  -18.60769
       H     6.70475   14.93328  -17.36392
       O     6.24908   14.57435  -16.60104
      H1     6.85464   13.87487  -16.27286
       H     3.72861   16.91469  -11.64671
       O     4.54777   17.32983  -11.95504
      H1     4.26392   17.57204  -12.83162
       H    -0.99037   14.88721  -15.98419
       O    -0.26276   15.47504  -16.25520
      H1     0.28213   14.89606  -16.84836
       H    10.61772   14.55108  -18.46675
       O    10.43701   13.68023  -18.12483
      H1    10.85425   13.56262  -17.27550
       H     5.59236   18.67890   -9.20628
       O     5.99592   17.90554   -8.87237
      H1     5.62030   17.14566   -9.39115
       H    11.95979   11.19599  -18.95953
       O    12.86724   11.00375  -18.57518
      H1    13.42711   11.31468  -19.33038
       H    11.52786   19.01167  -17.26094
       O    12.03710   18.59528  -16.52394
      H1    12.87628   18.30197  -16.98573
       H     5.60219   11.15709  -13.24272
       O     6.46096   11.47616  -12.87893
      H1     7.14657   10.87782  -13.32974

